MODEL 1
REMARK VINA RESULT:      -7.8      0.000      0.000
REMARK  6 active torsions:
REMARK  status: ('A' for Active; 'I' for Inactive)
REMARK    1  A    between atoms: C7_7  and  N1_8 
REMARK    2  A    between atoms: N1_8  and  C8_9 
REMARK    3  A    between atoms: C19_24  and  O3_25 
REMARK    4  A    between atoms: O3_25  and  C20_26 
REMARK    5  A    between atoms: C20_26  and  C21_27 
REMARK    6  A    between atoms: C21_27  and  O4_28 
ROOT
HETATM    1  C1  UNL     1      21.481   3.914  45.170  1.00  0.00     0.018 C 
HETATM    2  C2  UNL     1      21.989   4.872  45.702  1.00  0.00    -0.078 C 
HETATM    3  C3  UNL     1      22.586   6.008  46.343  1.00  0.00     0.019 A 
HETATM    4  C4  UNL     1      22.429   7.220  45.713  1.00  0.00     0.021 A 
HETATM    5  C5  UNL     1      22.966   8.350  46.269  1.00  0.00     0.004 A 
HETATM    6  C6  UNL     1      23.673   8.249  47.476  1.00  0.00     0.029 A 
HETATM    7  C7  UNL     1      23.843   7.033  48.131  1.00  0.00     0.034 A 
HETATM    8  C24 UNL     1      23.281   5.927  47.530  1.00  0.00     0.050 A 
ENDROOT
BRANCH   7   9
HETATM    9  N1  UNL     1      24.554   6.930  49.355  1.00  0.00    -0.354 N 
HETATM   10  H5  UNL     1      24.312   7.555  50.135  1.00  0.00     0.166 HD
BRANCH   9  11
HETATM   11  C8  UNL     1      25.570   5.907  49.316  1.00  0.00     0.064 A 
HETATM   12  C9  UNL     1      26.678   6.169  48.559  1.00  0.00     0.089 A 
HETATM   13  C10 UNL     1      26.947   7.346  47.807  1.00  0.00     0.103 C 
HETATM   14  C11 UNL     1      27.591   5.166  48.559  1.00  0.00     0.142 A 
HETATM   15  N2  UNL     1      27.156   8.280  47.197  1.00  0.00    -0.191 NA
HETATM   16  N3  UNL     1      27.334   4.071  49.266  1.00  0.00    -0.259 NA
HETATM   17  C12 UNL     1      26.266   3.809  50.003  1.00  0.00     0.064 A 
HETATM   18  C13 UNL     1      25.301   4.778  50.047  1.00  0.00     0.006 A 
HETATM   19  C23 UNL     1      26.474   2.625  50.548  1.00  0.00     0.040 C 
HETATM   20  C14 UNL     1      24.098   5.199  50.498  1.00  0.00     0.058 C 
HETATM   21  C15 UNL     1      22.828   5.333  51.132  1.00  0.00     0.177 C 
HETATM   22  O1  UNL     1      22.781   5.200  52.530  1.00  0.00    -0.388 OA
HETATM   23  C16 UNL     1      23.329   3.988  52.911  1.00  0.00     0.193 C 
HETATM   24  C17 UNL     1      22.669   2.772  52.303  1.00  0.00     0.194 C 
HETATM   25  O2  UNL     1      23.417   1.618  52.774  1.00  0.00    -0.378 OA
HETATM   26  C18 UNL     1      24.701   1.335  52.248  1.00  0.00     0.268 C 
HETATM   27  C19 UNL     1      25.752   1.721  51.453  1.00  0.00     0.093 C 
BRANCH  27  28
HETATM   28  O3  UNL     1      26.274   0.515  51.862  1.00  0.00    -0.377 OA
BRANCH  28  29
HETATM   29  C20 UNL     1      27.483   0.487  52.638  1.00  0.00     0.195 C 
BRANCH  29  30
HETATM   30  C21 UNL     1      27.364  -0.568  53.701  1.00  0.00     0.193 C 
BRANCH  30  31
HETATM   31  O4  UNL     1      28.537  -0.605  54.437  1.00  0.00    -0.394 OA
HETATM   32  C22 UNL     1      29.686  -0.405  53.714  1.00  0.00     0.201 C 
ENDBRANCH  30  31
ENDBRANCH  29  30
ENDBRANCH  28  29
ENDBRANCH  27  28
ENDBRANCH   9  11
ENDBRANCH   7   9
TORSDOF 6
ENDMDL
MODEL 2
REMARK VINA RESULT:      -7.7      3.482      7.058
REMARK  6 active torsions:
REMARK  status: ('A' for Active; 'I' for Inactive)
REMARK    1  A    between atoms: C7_7  and  N1_8 
REMARK    2  A    between atoms: N1_8  and  C8_9 
REMARK    3  A    between atoms: C19_24  and  O3_25 
REMARK    4  A    between atoms: O3_25  and  C20_26 
REMARK    5  A    between atoms: C20_26  and  C21_27 
REMARK    6  A    between atoms: C21_27  and  O4_28 
ROOT
HETATM    1  C1  UNL     1      20.810  -1.612  54.203  1.00  0.00     0.018 C 
HETATM    2  C2  UNL     1      21.200  -0.786  53.413  1.00  0.00    -0.078 C 
HETATM    3  C3  UNL     1      21.657   0.204  52.481  1.00  0.00     0.019 A 
HETATM    4  C4  UNL     1      21.203   0.087  51.189  1.00  0.00     0.021 A 
HETATM    5  C5  UNL     1      21.593   0.998  50.245  1.00  0.00     0.004 A 
HETATM    6  C6  UNL     1      22.456   2.039  50.616  1.00  0.00     0.029 A 
HETATM    7  C7  UNL     1      22.927   2.179  51.917  1.00  0.00     0.034 A 
HETATM    8  C24 UNL     1      22.504   1.235  52.829  1.00  0.00     0.050 A 
ENDROOT
BRANCH   7   9
HETATM    9  N1  UNL     1      23.797   3.234  52.295  1.00  0.00    -0.354 N 
HETATM   10  H5  UNL     1      23.629   3.738  53.176  1.00  0.00     0.166 HD
BRANCH   9  11
HETATM   11  C8  UNL     1      24.845   3.457  51.328  1.00  0.00     0.064 A 
HETATM   12  C9  UNL     1      25.802   2.487  51.226  1.00  0.00     0.089 A 
HETATM   13  C10 UNL     1      25.879   1.273  51.963  1.00  0.00     0.103 C 
HETATM   14  C11 UNL     1      26.761   2.759  50.306  1.00  0.00     0.142 A 
HETATM   15  N2  UNL     1      25.948   0.310  52.560  1.00  0.00    -0.191 NA
HETATM   16  N3  UNL     1      26.680   3.893  49.619  1.00  0.00    -0.259 NA
HETATM   17  C12 UNL     1      25.757   4.837  49.710  1.00  0.00     0.064 A 
HETATM   18  C13 UNL     1      24.759   4.629  50.622  1.00  0.00     0.006 A 
HETATM   19  C23 UNL     1      26.069   5.748  48.807  1.00  0.00     0.040 C 
HETATM   20  C14 UNL     1      23.627   5.061  51.224  1.00  0.00     0.058 C 
HETATM   21  C15 UNL     1      22.477   5.789  51.648  1.00  0.00     0.177 C 
HETATM   22  O1  UNL     1      21.532   6.140  50.668  1.00  0.00    -0.388 OA
HETATM   23  C16 UNL     1      22.144   6.850  49.651  1.00  0.00     0.193 C 
HETATM   24  C17 UNL     1      22.852   8.111  50.090  1.00  0.00     0.194 C 
HETATM   25  O2  UNL     1      23.471   8.673  48.901  1.00  0.00    -0.378 OA
HETATM   26  C18 UNL     1      24.626   8.072  48.345  1.00  0.00     0.268 C 
HETATM   27  C19 UNL     1      25.521   7.030  48.345  1.00  0.00     0.093 C 
BRANCH  27  28
HETATM   28  O3  UNL     1      26.096   7.754  47.327  1.00  0.00    -0.377 OA
BRANCH  28  29
HETATM   29  C20 UNL     1      27.522   7.739  47.157  1.00  0.00     0.195 C 
BRANCH  29  30
HETATM   30  C21 UNL     1      28.088   9.056  47.608  1.00  0.00     0.193 C 
BRANCH  30  31
HETATM   31  O4  UNL     1      28.342   9.000  48.969  1.00  0.00    -0.394 OA
HETATM   32  C22 UNL     1      29.642   9.247  49.329  1.00  0.00     0.201 C 
ENDBRANCH  30  31
ENDBRANCH  29  30
ENDBRANCH  28  29
ENDBRANCH  27  28
ENDBRANCH   9  11
ENDBRANCH   7   9
TORSDOF 6
ENDMDL
MODEL 3
REMARK VINA RESULT:      -7.7      3.466      8.742
REMARK  6 active torsions:
REMARK  status: ('A' for Active; 'I' for Inactive)
REMARK    1  A    between atoms: C7_7  and  N1_8 
REMARK    2  A    between atoms: N1_8  and  C8_9 
REMARK    3  A    between atoms: C19_24  and  O3_25 
REMARK    4  A    between atoms: O3_25  and  C20_26 
REMARK    5  A    between atoms: C20_26  and  C21_27 
REMARK    6  A    between atoms: C21_27  and  O4_28 
ROOT
HETATM    1  C1  UNL     1      29.054  -1.877  53.085  1.00  0.00     0.018 C 
HETATM    2  C2  UNL     1      28.228  -0.996  53.095  1.00  0.00    -0.078 C 
HETATM    3  C3  UNL     1      27.251   0.055  53.097  1.00  0.00     0.019 A 
HETATM    4  C4  UNL     1      27.298   0.933  54.154  1.00  0.00     0.021 A 
HETATM    5  C5  UNL     1      26.401   1.965  54.221  1.00  0.00     0.004 A 
HETATM    6  C6  UNL     1      25.443   2.105  53.206  1.00  0.00     0.029 A 
HETATM    7  C7  UNL     1      25.378   1.229  52.128  1.00  0.00     0.034 A 
HETATM    8  C24 UNL     1      26.305   0.208  52.107  1.00  0.00     0.050 A 
ENDROOT
BRANCH   7   9
HETATM    9  N1  UNL     1      24.412   1.372  51.098  1.00  0.00    -0.354 N 
HETATM   10  H5  UNL     1      24.603   0.977  50.167  1.00  0.00     0.166 HD
BRANCH   9  11
HETATM   11  C8  UNL     1      23.243   2.094  51.536  1.00  0.00     0.064 A 
HETATM   12  C9  UNL     1      22.372   1.421  52.346  1.00  0.00     0.089 A 
HETATM   13  C10 UNL     1      22.493   0.083  52.814  1.00  0.00     0.103 C 
HETATM   14  C11 UNL     1      21.292   2.152  52.716  1.00  0.00     0.142 A 
HETATM   15  N2  UNL     1      22.582  -0.989  53.178  1.00  0.00    -0.191 NA
HETATM   16  N3  UNL     1      21.188   3.401  52.278  1.00  0.00    -0.259 NA
HETATM   17  C12 UNL     1      22.026   4.062  51.495  1.00  0.00     0.064 A 
HETATM   18  C13 UNL     1      23.139   3.384  51.080  1.00  0.00     0.006 A 
HETATM   19  C23 UNL     1      21.530   5.279  51.364  1.00  0.00     0.040 C 
HETATM   20  C14 UNL     1      24.289   3.363  50.369  1.00  0.00     0.058 C 
HETATM   21  C15 UNL     1      25.410   3.668  49.542  1.00  0.00     0.177 C 
HETATM   22  O1  UNL     1      26.199   4.776  49.898  1.00  0.00    -0.388 OA
HETATM   23  C16 UNL     1      25.410   5.908  49.993  1.00  0.00     0.193 C 
HETATM   24  C17 UNL     1      24.647   6.261  48.738  1.00  0.00     0.194 C 
HETATM   25  O2  UNL     1      23.844   7.431  49.057  1.00  0.00    -0.378 OA
HETATM   26  C18 UNL     1      22.692   7.306  49.870  1.00  0.00     0.268 C 
HETATM   27  C19 UNL     1      21.902   6.518  50.670  1.00  0.00     0.093 C 
BRANCH  27  28
HETATM   28  O3  UNL     1      21.148   7.666  50.756  1.00  0.00    -0.377 OA
BRANCH  28  29
HETATM   29  C20 UNL     1      20.126   7.923  49.779  1.00  0.00     0.195 C 
BRANCH  29  30
HETATM   30  C21 UNL     1      19.621   9.327  49.951  1.00  0.00     0.193 C 
BRANCH  30  31
HETATM   31  O4  UNL     1      19.862  10.043  48.790  1.00  0.00    -0.394 OA
HETATM   32  C22 UNL     1      21.136  10.538  48.664  1.00  0.00     0.201 C 
ENDBRANCH  30  31
ENDBRANCH  29  30
ENDBRANCH  28  29
ENDBRANCH  27  28
ENDBRANCH   9  11
ENDBRANCH   7   9
TORSDOF 6
ENDMDL
MODEL 4
REMARK VINA RESULT:      -7.6      1.708      2.627
REMARK  6 active torsions:
REMARK  status: ('A' for Active; 'I' for Inactive)
REMARK    1  A    between atoms: C7_7  and  N1_8 
REMARK    2  A    between atoms: N1_8  and  C8_9 
REMARK    3  A    between atoms: C19_24  and  O3_25 
REMARK    4  A    between atoms: O3_25  and  C20_26 
REMARK    5  A    between atoms: C20_26  and  C21_27 
REMARK    6  A    between atoms: C21_27  and  O4_28 
ROOT
HETATM    1  C1  UNL     1      20.869   7.188  44.866  1.00  0.00     0.018 C 
HETATM    2  C2  UNL     1      21.272   6.281  45.553  1.00  0.00    -0.078 C 
HETATM    3  C3  UNL     1      21.761   5.208  46.370  1.00  0.00     0.019 A 
HETATM    4  C4  UNL     1      21.804   3.964  45.787  1.00  0.00     0.021 A 
HETATM    5  C5  UNL     1      22.265   2.892  46.505  1.00  0.00     0.004 A 
HETATM    6  C6  UNL     1      22.683   3.085  47.829  1.00  0.00     0.029 A 
HETATM    7  C7  UNL     1      22.649   4.335  48.439  1.00  0.00     0.034 A 
HETATM    8  C24 UNL     1      22.178   5.381  47.673  1.00  0.00     0.050 A 
ENDROOT
BRANCH   7   9
HETATM    9  N1  UNL     1      23.075   4.533  49.778  1.00  0.00    -0.354 N 
HETATM   10  H5  UNL     1      22.431   4.959  50.456  1.00  0.00     0.166 HD
BRANCH   9  11
HETATM   11  C8  UNL     1      24.429   4.082  49.997  1.00  0.00     0.064 A 
HETATM   12  C9  UNL     1      25.423   4.828  49.429  1.00  0.00     0.089 A 
HETATM   13  C10 UNL     1      25.276   6.008  48.650  1.00  0.00     0.103 C 
HETATM   14  C11 UNL     1      26.670   4.348  49.666  1.00  0.00     0.142 A 
HETATM   15  N2  UNL     1      25.158   6.943  48.016  1.00  0.00    -0.191 NA
HETATM   16  N3  UNL     1      26.799   3.247  50.398  1.00  0.00    -0.259 NA
HETATM   17  C12 UNL     1      25.843   2.520  50.952  1.00  0.00     0.064 A 
HETATM   18  C13 UNL     1      24.558   2.945  50.752  1.00  0.00     0.006 A 
HETATM   19  C23 UNL     1      26.450   1.551  51.613  1.00  0.00     0.040 C 
HETATM   20  C14 UNL     1      23.232   2.769  50.951  1.00  0.00     0.058 C 
HETATM   21  C15 UNL     1      21.941   2.305  51.338  1.00  0.00     0.177 C 
HETATM   22  O1  UNL     1      21.691   2.147  52.712  1.00  0.00    -0.388 OA
HETATM   23  C16 UNL     1      22.639   1.310  53.274  1.00  0.00     0.193 C 
HETATM   24  C17 UNL     1      22.723  -0.065  52.654  1.00  0.00     0.194 C 
HETATM   25  O2  UNL     1      23.803  -0.760  53.335  1.00  0.00    -0.378 OA
HETATM   26  C18 UNL     1      25.151  -0.423  53.067  1.00  0.00     0.268 C 
HETATM   27  C19 UNL     1      26.050   0.408  52.443  1.00  0.00     0.093 C 
BRANCH  27  28
HETATM   28  O3  UNL     1      26.967  -0.435  53.028  1.00  0.00    -0.377 OA
BRANCH  28  29
HETATM   29  C20 UNL     1      27.453  -0.154  54.351  1.00  0.00     0.195 C 
BRANCH  29  30
HETATM   30  C21 UNL     1      28.955  -0.184  54.341  1.00  0.00     0.193 C 
BRANCH  30  31
HETATM   31  O4  UNL     1      29.426   0.875  53.582  1.00  0.00    -0.394 OA
HETATM   32  C22 UNL     1      29.070   2.120  54.034  1.00  0.00     0.201 C 
ENDBRANCH  30  31
ENDBRANCH  29  30
ENDBRANCH  28  29
ENDBRANCH  27  28
ENDBRANCH   9  11
ENDBRANCH   7   9
TORSDOF 6
ENDMDL
MODEL 5
REMARK VINA RESULT:      -7.6      4.345      9.088
REMARK  6 active torsions:
REMARK  status: ('A' for Active; 'I' for Inactive)
REMARK    1  A    between atoms: C7_7  and  N1_8 
REMARK    2  A    between atoms: N1_8  and  C8_9 
REMARK    3  A    between atoms: C19_24  and  O3_25 
REMARK    4  A    between atoms: O3_25  and  C20_26 
REMARK    5  A    between atoms: C20_26  and  C21_27 
REMARK    6  A    between atoms: C21_27  and  O4_28 
ROOT
HETATM    1  C1  UNL     1      29.240  -0.796  53.526  1.00  0.00     0.018 C 
HETATM    2  C2  UNL     1      28.219  -0.158  53.425  1.00  0.00    -0.078 C 
HETATM    3  C3  UNL     1      27.008   0.599  53.292  1.00  0.00     0.019 A 
HETATM    4  C4  UNL     1      26.987   1.833  53.899  1.00  0.00     0.021 A 
HETATM    5  C5  UNL     1      25.867   2.615  53.812  1.00  0.00     0.004 A 
HETATM    6  C6  UNL     1      24.755   2.140  53.102  1.00  0.00     0.029 A 
HETATM    7  C7  UNL     1      24.755   0.895  52.480  1.00  0.00     0.034 A 
HETATM    8  C24 UNL     1      25.907   0.148  52.597  1.00  0.00     0.050 A 
ENDROOT
BRANCH   7   9
HETATM    9  N1  UNL     1      23.631   0.414  51.758  1.00  0.00    -0.354 N 
HETATM   10  H5  UNL     1      23.777  -0.116  50.889  1.00  0.00     0.166 HD
BRANCH   9  11
HETATM   11  C8  UNL     1      22.381   0.764  52.388  1.00  0.00     0.064 A 
HETATM   12  C9  UNL     1      22.113   0.175  53.591  1.00  0.00     0.089 A 
HETATM   13  C10 UNL     1      22.935  -0.744  54.301  1.00  0.00     0.103 C 
HETATM   14  C11 UNL     1      20.922   0.540  54.127  1.00  0.00     0.142 A 
HETATM   15  N2  UNL     1      23.585  -1.487  54.862  1.00  0.00    -0.191 NA
HETATM   16  N3  UNL     1      20.162   1.401  53.460  1.00  0.00    -0.259 NA
HETATM   17  C12 UNL     1      20.413   1.978  52.295  1.00  0.00     0.064 A 
HETATM   18  C13 UNL     1      21.598   1.653  51.695  1.00  0.00     0.006 A 
HETATM   19  C23 UNL     1      19.394   2.782  52.053  1.00  0.00     0.040 C 
HETATM   20  C14 UNL     1      22.449   1.791  50.654  1.00  0.00     0.058 C 
HETATM   21  C15 UNL     1      23.100   2.152  49.437  1.00  0.00     0.177 C 
HETATM   22  O1  UNL     1      23.339   3.518  49.208  1.00  0.00    -0.388 OA
HETATM   23  C16 UNL     1      22.156   4.229  49.293  1.00  0.00     0.193 C 
HETATM   24  C17 UNL     1      21.072   3.778  48.342  1.00  0.00     0.194 C 
HETATM   25  O2  UNL     1      19.905   4.599  48.625  1.00  0.00    -0.378 OA
HETATM   26  C18 UNL     1      19.141   4.374  49.796  1.00  0.00     0.268 C 
HETATM   27  C19 UNL     1      18.994   3.713  50.991  1.00  0.00     0.093 C 
BRANCH  27  28
HETATM   28  O3  UNL     1      17.831   4.446  51.051  1.00  0.00    -0.377 OA
BRANCH  28  29
HETATM   29  C20 UNL     1      16.618   3.905  50.503  1.00  0.00     0.195 C 
BRANCH  29  30
HETATM   30  C21 UNL     1      15.743   3.419  51.625  1.00  0.00     0.193 C 
BRANCH  30  31
HETATM   31  O4  UNL     1      15.919   4.240  52.726  1.00  0.00    -0.394 OA
HETATM   32  C22 UNL     1      14.814   4.385  53.527  1.00  0.00     0.201 C 
ENDBRANCH  30  31
ENDBRANCH  29  30
ENDBRANCH  28  29
ENDBRANCH  27  28
ENDBRANCH   9  11
ENDBRANCH   7   9
TORSDOF 6
ENDMDL
MODEL 6
REMARK VINA RESULT:      -7.5      3.122      4.261
REMARK  6 active torsions:
REMARK  status: ('A' for Active; 'I' for Inactive)
REMARK    1  A    between atoms: C7_7  and  N1_8 
REMARK    2  A    between atoms: N1_8  and  C8_9 
REMARK    3  A    between atoms: C19_24  and  O3_25 
REMARK    4  A    between atoms: O3_25  and  C20_26 
REMARK    5  A    between atoms: C20_26  and  C21_27 
REMARK    6  A    between atoms: C21_27  and  O4_28 
ROOT
HETATM    1  C1  UNL     1      21.899   3.863  45.786  1.00  0.00     0.018 C 
HETATM    2  C2  UNL     1      21.164   3.814  46.742  1.00  0.00    -0.078 C 
HETATM    3  C3  UNL     1      20.297   3.746  47.883  1.00  0.00     0.019 A 
HETATM    4  C4  UNL     1      18.987   3.407  47.639  1.00  0.00     0.021 A 
HETATM    5  C5  UNL     1      18.102   3.317  48.680  1.00  0.00     0.004 A 
HETATM    6  C6  UNL     1      18.551   3.578  49.982  1.00  0.00     0.029 A 
HETATM    7  C7  UNL     1      19.871   3.922  50.253  1.00  0.00     0.034 A 
HETATM    8  C24 UNL     1      20.722   3.997  49.170  1.00  0.00     0.050 A 
ENDROOT
BRANCH   7   9
HETATM    9  N1  UNL     1      20.328   4.182  51.571  1.00  0.00    -0.354 N 
HETATM   10  H5  UNL     1      19.643   4.293  52.331  1.00  0.00     0.166 HD
BRANCH   9  11
HETATM   11  C8  UNL     1      21.766   4.260  51.651  1.00  0.00     0.064 A 
HETATM   12  C9  UNL     1      22.337   5.452  51.304  1.00  0.00     0.089 A 
HETATM   13  C10 UNL     1      21.670   6.634  50.878  1.00  0.00     0.103 C 
HETATM   14  C11 UNL     1      23.690   5.458  51.393  1.00  0.00     0.142 A 
HETATM   15  N2  UNL     1      21.138   7.573  50.525  1.00  0.00    -0.191 NA
HETATM   16  N3  UNL     1      24.306   4.352  51.795  1.00  0.00    -0.259 NA
HETATM   17  C12 UNL     1      23.762   3.194  52.135  1.00  0.00     0.064 A 
HETATM   18  C13 UNL     1      22.398   3.115  52.066  1.00  0.00     0.006 A 
HETATM   19  C23 UNL     1      24.759   2.410  52.502  1.00  0.00     0.040 C 
HETATM   20  C14 UNL     1      21.267   2.390  52.216  1.00  0.00     0.058 C 
HETATM   21  C15 UNL     1      20.298   1.375  52.469  1.00  0.00     0.177 C 
HETATM   22  O1  UNL     1      20.282   0.795  53.749  1.00  0.00    -0.388 OA
HETATM   23  C16 UNL     1      21.532   0.286  54.055  1.00  0.00     0.193 C 
HETATM   24  C17 UNL     1      22.057  -0.743  53.082  1.00  0.00     0.194 C 
HETATM   25  O2  UNL     1      23.388  -1.105  53.541  1.00  0.00    -0.378 OA
HETATM   26  C18 UNL     1      24.472  -0.210  53.367  1.00  0.00     0.268 C 
HETATM   27  C19 UNL     1      24.915   1.034  52.989  1.00  0.00     0.093 C 
BRANCH  27  28
HETATM   28  O3  UNL     1      26.141   0.502  53.316  1.00  0.00    -0.377 OA
BRANCH  28  29
HETATM   29  C20 UNL     1      26.533   0.406  54.695  1.00  0.00     0.195 C 
BRANCH  29  30
HETATM   30  C21 UNL     1      28.021   0.212  54.774  1.00  0.00     0.193 C 
BRANCH  30  31
HETATM   31  O4  UNL     1      28.379  -0.877  53.997  1.00  0.00    -0.394 OA
HETATM   32  C22 UNL     1      29.725  -1.008  53.763  1.00  0.00     0.201 C 
ENDBRANCH  30  31
ENDBRANCH  29  30
ENDBRANCH  28  29
ENDBRANCH  27  28
ENDBRANCH   9  11
ENDBRANCH   7   9
TORSDOF 6
ENDMDL
MODEL 7
REMARK VINA RESULT:      -7.4      2.790      5.238
REMARK  6 active torsions:
REMARK  status: ('A' for Active; 'I' for Inactive)
REMARK    1  A    between atoms: C7_7  and  N1_8 
REMARK    2  A    between atoms: N1_8  and  C8_9 
REMARK    3  A    between atoms: C19_24  and  O3_25 
REMARK    4  A    between atoms: O3_25  and  C20_26 
REMARK    5  A    between atoms: C20_26  and  C21_27 
REMARK    6  A    between atoms: C21_27  and  O4_28 
ROOT
HETATM    1  C1  UNL     1      25.556   9.246  46.948  1.00  0.00     0.018 C 
HETATM    2  C2  UNL     1      25.252   8.434  47.788  1.00  0.00    -0.078 C 
HETATM    3  C3  UNL     1      24.883   7.464  48.778  1.00  0.00     0.019 A 
HETATM    4  C4  UNL     1      24.285   7.947  49.918  1.00  0.00     0.021 A 
HETATM    5  C5  UNL     1      23.901   7.080  50.905  1.00  0.00     0.004 A 
HETATM    6  C6  UNL     1      24.128   5.707  50.735  1.00  0.00     0.029 A 
HETATM    7  C7  UNL     1      24.731   5.195  49.590  1.00  0.00     0.034 A 
HETATM    8  C24 UNL     1      25.098   6.110  48.626  1.00  0.00     0.050 A 
ENDROOT
BRANCH   7   9
HETATM    9  N1  UNL     1      24.959   3.805  49.415  1.00  0.00    -0.354 N 
HETATM   10  H5  UNL     1      25.851   3.485  49.016  1.00  0.00     0.166 HD
BRANCH   9  11
HETATM   11  C8  UNL     1      23.838   3.005  49.845  1.00  0.00     0.064 A 
HETATM   12  C9  UNL     1      22.685   3.123  49.121  1.00  0.00     0.089 A 
HETATM   13  C10 UNL     1      22.466   3.943  47.980  1.00  0.00     0.103 C 
HETATM   14  C11 UNL     1      21.669   2.351  49.580  1.00  0.00     0.142 A 
HETATM   15  N2  UNL     1      22.287   4.608  47.077  1.00  0.00    -0.191 NA
HETATM   16  N3  UNL     1      21.882   1.586  50.644  1.00  0.00    -0.259 NA
HETATM   17  C12 UNL     1      22.995   1.464  51.351  1.00  0.00     0.064 A 
HETATM   18  C13 UNL     1      24.062   2.216  50.945  1.00  0.00     0.006 A 
HETATM   19  C23 UNL     1      22.745   0.562  52.283  1.00  0.00     0.040 C 
HETATM   20  C14 UNL     1      25.347   2.599  51.120  1.00  0.00     0.058 C 
HETATM   21  C15 UNL     1      26.686   2.784  51.574  1.00  0.00     0.177 C 
HETATM   22  O1  UNL     1      27.504   1.645  51.668  1.00  0.00    -0.388 OA
HETATM   23  C16 UNL     1      26.902   0.693  52.471  1.00  0.00     0.193 C 
HETATM   24  C17 UNL     1      26.579   1.153  53.873  1.00  0.00     0.194 C 
HETATM   25  O2  UNL     1      25.907   0.042  54.528  1.00  0.00    -0.378 OA
HETATM   26  C18 UNL     1      24.569  -0.280  54.195  1.00  0.00     0.268 C 
HETATM   27  C19 UNL     1      23.478  -0.067  53.388  1.00  0.00     0.093 C 
BRANCH  27  28
HETATM   28  O3  UNL     1      22.914  -1.027  54.196  1.00  0.00    -0.377 OA
BRANCH  28  29
HETATM   29  C20 UNL     1      21.731  -1.719  53.764  1.00  0.00     0.195 C 
BRANCH  29  30
HETATM   30  C21 UNL     1      20.529  -1.094  54.413  1.00  0.00     0.193 C 
BRANCH  30  31
HETATM   31  O4  UNL     1      19.426  -1.274  53.595  1.00  0.00    -0.394 OA
HETATM   32  C22 UNL     1      19.203  -0.268  52.687  1.00  0.00     0.201 C 
ENDBRANCH  30  31
ENDBRANCH  29  30
ENDBRANCH  28  29
ENDBRANCH  27  28
ENDBRANCH   9  11
ENDBRANCH   7   9
TORSDOF 6
ENDMDL
MODEL 8
REMARK VINA RESULT:      -7.3      6.110      8.555
REMARK  6 active torsions:
REMARK  status: ('A' for Active; 'I' for Inactive)
REMARK    1  A    between atoms: C7_7  and  N1_8 
REMARK    2  A    between atoms: N1_8  and  C8_9 
REMARK    3  A    between atoms: C19_24  and  O3_25 
REMARK    4  A    between atoms: O3_25  and  C20_26 
REMARK    5  A    between atoms: C20_26  and  C21_27 
REMARK    6  A    between atoms: C21_27  and  O4_28 
ROOT
HETATM    1  C1  UNL     1      15.124   4.504  53.517  1.00  0.00     0.018 C 
HETATM    2  C2  UNL     1      15.159   3.632  52.682  1.00  0.00    -0.078 C 
HETATM    3  C3  UNL     1      15.208   2.601  51.685  1.00  0.00     0.019 A 
HETATM    4  C4  UNL     1      14.045   2.363  50.992  1.00  0.00     0.021 A 
HETATM    5  C5  UNL     1      14.018   1.398  50.021  1.00  0.00     0.004 A 
HETATM    6  C6  UNL     1      15.183   0.665  49.753  1.00  0.00     0.029 A 
HETATM    7  C7  UNL     1      16.371   0.890  50.441  1.00  0.00     0.034 A 
HETATM    8  C24 UNL     1      16.345   1.873  51.408  1.00  0.00     0.050 A 
ENDROOT
BRANCH   7   9
HETATM    9  N1  UNL     1      17.552   0.151  50.168  1.00  0.00    -0.354 N 
HETATM   10  H5  UNL     1      17.781  -0.094  49.196  1.00  0.00     0.166 HD
BRANCH   9  11
HETATM   11  C8  UNL     1      18.293  -0.164  51.365  1.00  0.00     0.064 A 
HETATM   12  C9  UNL     1      17.678  -0.981  52.271  1.00  0.00     0.089 A 
HETATM   13  C10 UNL     1      16.385  -1.565  52.165  1.00  0.00     0.103 C 
HETATM   14  C11 UNL     1      18.423  -1.233  53.376  1.00  0.00     0.142 A 
HETATM   15  N2  UNL     1      15.349  -2.021  52.086  1.00  0.00    -0.191 NA
HETATM   16  N3  UNL     1      19.631  -0.686  53.467  1.00  0.00    -0.259 NA
HETATM   17  C12 UNL     1      20.235   0.105  52.594  1.00  0.00     0.064 A 
HETATM   18  C13 UNL     1      19.539   0.403  51.455  1.00  0.00     0.006 A 
HETATM   19  C23 UNL     1      21.430   0.362  53.094  1.00  0.00     0.040 C 
HETATM   20  C14 UNL     1      19.474   1.049  50.269  1.00  0.00     0.058 C 
HETATM   21  C15 UNL     1      19.723   1.840  49.109  1.00  0.00     0.177 C 
HETATM   22  O1  UNL     1      20.867   1.538  48.350  1.00  0.00    -0.388 OA
HETATM   23  C16 UNL     1      21.994   1.578  49.151  1.00  0.00     0.193 C 
HETATM   24  C17 UNL     1      22.231   2.896  49.851  1.00  0.00     0.194 C 
HETATM   25  O2  UNL     1      23.413   2.718  50.679  1.00  0.00    -0.378 OA
HETATM   26  C18 UNL     1      23.341   1.958  51.872  1.00  0.00     0.268 C 
HETATM   27  C19 UNL     1      22.612   1.137  52.696  1.00  0.00     0.093 C 
BRANCH  27  28
HETATM   28  O3  UNL     1      23.754   1.187  53.463  1.00  0.00    -0.377 OA
BRANCH  28  29
HETATM   29  C20 UNL     1      24.904   0.414  53.082  1.00  0.00     0.195 C 
BRANCH  29  30
HETATM   30  C21 UNL     1      25.233  -0.555  54.182  1.00  0.00     0.193 C 
BRANCH  30  31
HETATM   31  O4  UNL     1      26.598  -0.797  54.180  1.00  0.00    -0.394 OA
HETATM   32  C22 UNL     1      27.362   0.173  54.781  1.00  0.00     0.201 C 
ENDBRANCH  30  31
ENDBRANCH  29  30
ENDBRANCH  28  29
ENDBRANCH  27  28
ENDBRANCH   9  11
ENDBRANCH   7   9
TORSDOF 6
ENDMDL
MODEL 9
REMARK VINA RESULT:      -7.3      3.673      5.875
REMARK  6 active torsions:
REMARK  status: ('A' for Active; 'I' for Inactive)
REMARK    1  A    between atoms: C7_7  and  N1_8 
REMARK    2  A    between atoms: N1_8  and  C8_9 
REMARK    3  A    between atoms: C19_24  and  O3_25 
REMARK    4  A    between atoms: O3_25  and  C20_26 
REMARK    5  A    between atoms: C20_26  and  C21_27 
REMARK    6  A    between atoms: C21_27  and  O4_28 
ROOT
HETATM    1  C1  UNL     1      21.750   4.352  45.197  1.00  0.00     0.018 C 
HETATM    2  C2  UNL     1      21.733   4.538  46.390  1.00  0.00    -0.078 C 
HETATM    3  C3  UNL     1      21.721   4.749  47.809  1.00  0.00     0.019 A 
HETATM    4  C4  UNL     1      20.509   4.603  48.440  1.00  0.00     0.021 A 
HETATM    5  C5  UNL     1      20.421   4.783  49.795  1.00  0.00     0.004 A 
HETATM    6  C6  UNL     1      21.576   5.119  50.516  1.00  0.00     0.029 A 
HETATM    7  C7  UNL     1      22.813   5.270  49.898  1.00  0.00     0.034 A 
HETATM    8  C24 UNL     1      22.847   5.076  48.533  1.00  0.00     0.050 A 
ENDROOT
BRANCH   7   9
HETATM    9  N1  UNL     1      23.984   5.606  50.627  1.00  0.00    -0.354 N 
HETATM   10  H5  UNL     1      23.908   6.208  51.457  1.00  0.00     0.166 HD
BRANCH   9  11
HETATM   11  C8  UNL     1      25.174   5.020  50.058  1.00  0.00     0.064 A 
HETATM   12  C9  UNL     1      25.315   3.667  50.189  1.00  0.00     0.089 A 
HETATM   13  C10 UNL     1      24.413   2.765  50.819  1.00  0.00     0.103 C 
HETATM   14  C11 UNL     1      26.455   3.180  49.640  1.00  0.00     0.142 A 
HETATM   15  N2  UNL     1      23.700   2.047  51.333  1.00  0.00    -0.191 NA
HETATM   16  N3  UNL     1      27.290   4.028  49.051  1.00  0.00    -0.259 NA
HETATM   17  C12 UNL     1      27.162   5.339  48.918  1.00  0.00     0.064 A 
HETATM   18  C13 UNL     1      26.034   5.899  49.451  1.00  0.00     0.006 A 
HETATM   19  C23 UNL     1      28.212   5.746  48.230  1.00  0.00     0.040 C 
HETATM   20  C14 UNL     1      25.289   7.001  49.698  1.00  0.00     0.058 C 
HETATM   21  C15 UNL     1      24.764   8.323  49.792  1.00  0.00     0.177 C 
HETATM   22  O1  UNL     1      24.571   9.033  48.595  1.00  0.00    -0.388 OA
HETATM   23  C16 UNL     1      25.753   9.087  47.878  1.00  0.00     0.193 C 
HETATM   24  C17 UNL     1      26.915   9.715  48.611  1.00  0.00     0.194 C 
HETATM   25  O2  UNL     1      28.062   9.623  47.723  1.00  0.00    -0.378 OA
HETATM   26  C18 UNL     1      28.707   8.380  47.515  1.00  0.00     0.268 C 
HETATM   27  C19 UNL     1      28.728   7.022  47.718  1.00  0.00     0.093 C 
BRANCH  27  28
HETATM   28  O3  UNL     1      29.892   7.108  46.989  1.00  0.00    -0.377 OA
BRANCH  28  29
HETATM   29  C20 UNL     1      31.160   6.986  47.654  1.00  0.00     0.195 C 
BRANCH  29  30
HETATM   30  C21 UNL     1      31.653   5.573  47.521  1.00  0.00     0.193 C 
BRANCH  30  31
HETATM   31  O4  UNL     1      31.883   5.052  48.784  1.00  0.00    -0.394 OA
HETATM   32  C22 UNL     1      31.801   5.957  49.812  1.00  0.00     0.201 C 
ENDBRANCH  30  31
ENDBRANCH  29  30
ENDBRANCH  28  29
ENDBRANCH  27  28
ENDBRANCH   9  11
ENDBRANCH   7   9
TORSDOF 6
ENDMDL
