MODEL 1
REMARK VINA RESULT:      -8.3      0.000      0.000
REMARK  0 active torsions:
REMARK  status: ('A' for Active; 'I' for Inactive)
ROOT
HETATM    1  C1  UNL     1      24.441   0.905  53.168  1.00  0.00     0.043 C 
HETATM    2  C2  UNL     1      22.970   1.228  52.922  1.00  0.00    -0.082 C 
HETATM    3  C3  UNL     1      22.397   0.113  53.393  1.00  0.00    -0.011 C 
HETATM    4  C4  UNL     1      21.040  -0.477  53.267  1.00  0.00     0.135 C 
HETATM    5  S1  UNL     1      20.111   0.346  51.972  1.00  0.00    -0.019 SA
HETATM    6  C5  UNL     1      21.154   0.326  50.725  1.00  0.00     0.105 C 
HETATM    7  C6  UNL     1      22.000   1.397  50.144  1.00  0.00     0.075 A 
HETATM    8  N1  UNL     1      21.943   1.242  48.832  1.00  0.00    -0.241 NA
HETATM    9  C7  UNL     1      22.538   2.196  48.051  1.00  0.00     0.234 A 
HETATM   10  N2  UNL     1      23.155   3.260  48.653  1.00  0.00    -0.242 NA
HETATM   11  C8  UNL     1      23.194   3.390  49.975  1.00  0.00     0.067 A 
HETATM   12  C9  UNL     1      22.617   2.443  50.849  1.00  0.00     0.004 A 
HETATM   13  C10 UNL     1      22.859   2.592  52.297  1.00  0.00     0.077 C 
HETATM   14  C11 UNL     1      23.578   4.403  50.945  1.00  0.00     0.030 C 
HETATM   15  C12 UNL     1      22.340   4.952  51.060  1.00  0.00     0.001 C 
HETATM   16  C13 UNL     1      21.023   4.761  50.493  1.00  0.00     0.174 C 
HETATM   17  C14 UNL     1      20.856   4.832  49.050  1.00  0.00     0.074 C 
HETATM   18  N3  UNL     1      20.706   4.900  47.896  1.00  0.00    -0.196 NA
HETATM   19  C15 UNL     1      19.932   4.129  51.171  1.00  0.00     0.090 C 
HETATM   20  C16 UNL     1      19.680   3.080  51.916  1.00  0.00     0.186 C 
HETATM   21  O1  UNL     1      20.050   1.952  52.553  1.00  0.00    -0.287 OA
HETATM   22  O2  UNL     1      18.577   4.470  51.258  1.00  0.00    -0.352 OA
HETATM   23  C17 UNL     1      17.771   4.551  50.128  1.00  0.00     0.177 C 
HETATM   24  C18 UNL     1      16.419   3.972  50.131  1.00  0.00     0.046 C 
HETATM   25  C19 UNL     1      16.277   2.491  50.304  1.00  0.00     0.116 C 
HETATM   26  N4  UNL     1      16.681   2.032  51.559  1.00  0.00    -0.419 N 
HETATM   27  C20 UNL     1      16.632   0.683  51.908  1.00  0.00     0.136 C 
HETATM   28  C21 UNL     1      17.544  -0.309  51.296  1.00  0.00     0.177 C 
HETATM   29  N5  UNL     1      18.859  -0.238  51.548  1.00  0.00    -0.248 NA
HETATM   30  H21 UNL     1      16.641   2.720  52.340  1.00  0.00     0.153 HD
ENDROOT
TORSDOF 0
ENDMDL
MODEL 2
REMARK VINA RESULT:      -8.2      2.171      4.777
REMARK  0 active torsions:
REMARK  status: ('A' for Active; 'I' for Inactive)
ROOT
HETATM    1  C1  UNL     1      21.917   4.484  46.290  1.00  0.00     0.043 C 
HETATM    2  C2  UNL     1      21.595   3.507  47.417  1.00  0.00    -0.082 C 
HETATM    3  C3  UNL     1      20.314   3.233  47.140  1.00  0.00    -0.011 C 
HETATM    4  C4  UNL     1      19.210   2.598  47.903  1.00  0.00     0.135 C 
HETATM    5  S1  UNL     1      19.639   2.464  49.640  1.00  0.00    -0.019 SA
HETATM    6  C5  UNL     1      20.148   3.968  49.993  1.00  0.00     0.105 C 
HETATM    7  C6  UNL     1      21.513   4.514  50.186  1.00  0.00     0.075 A 
HETATM    8  N1  UNL     1      21.435   5.353  51.206  1.00  0.00    -0.241 NA
HETATM    9  C7  UNL     1      22.600   5.896  51.676  1.00  0.00     0.234 A 
HETATM   10  N2  UNL     1      23.784   5.549  51.082  1.00  0.00    -0.242 NA
HETATM   11  C8  UNL     1      23.832   4.702  50.059  1.00  0.00     0.067 A 
HETATM   12  C9  UNL     1      22.675   4.110  49.508  1.00  0.00     0.004 A 
HETATM   13  C10 UNL     1      22.818   3.315  48.273  1.00  0.00     0.077 C 
HETATM   14  C11 UNL     1      24.846   3.982  49.305  1.00  0.00     0.030 C 
HETATM   15  C12 UNL     1      24.805   2.857  50.065  1.00  0.00     0.001 C 
HETATM   16  C13 UNL     1      24.106   2.377  51.238  1.00  0.00     0.174 C 
HETATM   17  C14 UNL     1      24.193   3.139  52.474  1.00  0.00     0.074 C 
HETATM   18  N3  UNL     1      24.264   3.732  53.475  1.00  0.00    -0.196 NA
HETATM   19  C15 UNL     1      23.025   1.440  51.211  1.00  0.00     0.090 C 
HETATM   20  C16 UNL     1      21.924   1.189  50.545  1.00  0.00     0.186 C 
HETATM   21  O1  UNL     1      21.023   1.463  49.581  1.00  0.00    -0.287 OA
HETATM   22  O2  UNL     1      22.748   0.327  52.015  1.00  0.00    -0.352 OA
HETATM   23  C17 UNL     1      22.549   0.450  53.385  1.00  0.00     0.177 C 
HETATM   24  C18 UNL     1      21.449  -0.266  54.049  1.00  0.00     0.046 C 
HETATM   25  C19 UNL     1      20.042   0.078  53.668  1.00  0.00     0.116 C 
HETATM   26  N4  UNL     1      19.719  -0.258  52.352  1.00  0.00    -0.419 N 
HETATM   27  C20 UNL     1      18.460  -0.010  51.810  1.00  0.00     0.136 C 
HETATM   28  C21 UNL     1      17.995   1.367  51.528  1.00  0.00     0.177 C 
HETATM   29  N5  UNL     1      18.605   2.086  50.576  1.00  0.00    -0.248 NA
HETATM   30  H21 UNL     1      20.272  -1.029  51.922  1.00  0.00     0.153 HD
ENDROOT
TORSDOF 0
ENDMDL
MODEL 3
REMARK VINA RESULT:      -8.1      2.277      3.749
REMARK  0 active torsions:
REMARK  status: ('A' for Active; 'I' for Inactive)
ROOT
HETATM    1  C1  UNL     1      21.938  -0.254  52.373  1.00  0.00     0.043 C 
HETATM    2  C2  UNL     1      21.374   1.065  51.850  1.00  0.00    -0.082 C 
HETATM    3  C3  UNL     1      20.321   0.617  51.153  1.00  0.00    -0.011 C 
HETATM    4  C4  UNL     1      19.432   1.225  50.130  1.00  0.00     0.135 C 
HETATM    5  S1  UNL     1      20.129   2.760  49.520  1.00  0.00    -0.019 SA
HETATM    6  C5  UNL     1      21.656   2.334  49.157  1.00  0.00     0.105 C 
HETATM    7  C6  UNL     1      22.934   2.588  49.867  1.00  0.00     0.075 A 
HETATM    8  N1  UNL     1      23.826   2.870  48.932  1.00  0.00    -0.241 NA
HETATM    9  C7  UNL     1      25.068   3.277  49.338  1.00  0.00     0.234 A 
HETATM   10  N2  UNL     1      25.330   3.380  50.679  1.00  0.00    -0.242 NA
HETATM   11  C8  UNL     1      24.412   3.092  51.595  1.00  0.00     0.067 A 
HETATM   12  C9  UNL     1      23.114   2.653  51.258  1.00  0.00     0.004 A 
HETATM   13  C10 UNL     1      22.226   2.201  52.347  1.00  0.00     0.077 C 
HETATM   14  C11 UNL     1      24.248   3.232  53.034  1.00  0.00     0.030 C 
HETATM   15  C12 UNL     1      23.626   4.439  52.980  1.00  0.00     0.001 C 
HETATM   16  C13 UNL     1      23.220   5.395  51.973  1.00  0.00     0.174 C 
HETATM   17  C14 UNL     1      24.221   5.936  51.067  1.00  0.00     0.074 C 
HETATM   18  N3  UNL     1      25.015   6.388  50.343  1.00  0.00    -0.196 NA
HETATM   19  C15 UNL     1      21.874   5.576  51.523  1.00  0.00     0.090 C 
HETATM   20  C16 UNL     1      20.826   4.873  51.168  1.00  0.00     0.186 C 
HETATM   21  O1  UNL     1      20.193   3.705  50.943  1.00  0.00    -0.287 OA
HETATM   22  O2  UNL     1      21.135   6.738  51.264  1.00  0.00    -0.352 OA
HETATM   23  C17 UNL     1      21.535   7.656  50.301  1.00  0.00     0.177 C 
HETATM   24  C18 UNL     1      20.557   8.234  49.367  1.00  0.00     0.046 C 
HETATM   25  C19 UNL     1      19.856   7.319  48.411  1.00  0.00     0.116 C 
HETATM   26  N4  UNL     1      19.005   6.404  49.033  1.00  0.00    -0.419 N 
HETATM   27  C20 UNL     1      18.270   5.464  48.313  1.00  0.00     0.136 C 
HETATM   28  C21 UNL     1      18.926   4.326  47.629  1.00  0.00     0.177 C 
HETATM   29  N5  UNL     1      19.525   3.376  48.360  1.00  0.00    -0.248 NA
HETATM   30  H21 UNL     1      18.628   6.679  49.964  1.00  0.00     0.153 HD
ENDROOT
TORSDOF 0
ENDMDL
MODEL 4
REMARK VINA RESULT:      -8.0      2.527      6.145
REMARK  0 active torsions:
REMARK  status: ('A' for Active; 'I' for Inactive)
ROOT
HETATM    1  C1  UNL     1      21.483   7.733  49.769  1.00  0.00     0.043 C 
HETATM    2  C2  UNL     1      22.246   6.591  50.434  1.00  0.00    -0.082 C 
HETATM    3  C3  UNL     1      23.505   7.019  50.278  1.00  0.00    -0.011 C 
HETATM    4  C4  UNL     1      24.834   6.368  50.396  1.00  0.00     0.135 C 
HETATM    5  S1  UNL     1      24.659   4.584  50.467  1.00  0.00    -0.019 SA
HETATM    6  C5  UNL     1      23.683   4.276  49.204  1.00  0.00     0.105 C 
HETATM    7  C6  UNL     1      22.239   3.940  49.146  1.00  0.00     0.075 A 
HETATM    8  N1  UNL     1      22.115   3.004  48.220  1.00  0.00    -0.241 NA
HETATM    9  C7  UNL     1      20.886   2.422  48.064  1.00  0.00     0.234 A 
HETATM   10  N2  UNL     1      19.851   2.823  48.867  1.00  0.00    -0.242 NA
HETATM   11  C8  UNL     1      20.008   3.765  49.791  1.00  0.00     0.067 A 
HETATM   12  C9  UNL     1      21.238   4.423  50.005  1.00  0.00     0.004 A 
HETATM   13  C10 UNL     1      21.266   5.566  50.938  1.00  0.00     0.077 C 
HETATM   14  C11 UNL     1      19.248   4.320  50.900  1.00  0.00     0.030 C 
HETATM   15  C12 UNL     1      19.767   3.493  51.845  1.00  0.00     0.001 C 
HETATM   16  C13 UNL     1      20.706   2.394  51.912  1.00  0.00     0.174 C 
HETATM   17  C14 UNL     1      20.477   1.216  51.090  1.00  0.00     0.074 C 
HETATM   18  N3  UNL     1      20.298   0.260  50.446  1.00  0.00    -0.196 NA
HETATM   19  C15 UNL     1      22.042   2.498  52.413  1.00  0.00     0.090 C 
HETATM   20  C16 UNL     1      23.087   3.287  52.341  1.00  0.00     0.186 C 
HETATM   21  O1  UNL     1      23.727   4.381  51.886  1.00  0.00    -0.287 OA
HETATM   22  O2  UNL     1      22.780   1.660  53.258  1.00  0.00    -0.352 OA
HETATM   23  C17 UNL     1      23.058   0.342  52.916  1.00  0.00     0.177 C 
HETATM   24  C18 UNL     1      24.402  -0.217  53.123  1.00  0.00     0.046 C 
HETATM   25  C19 UNL     1      25.546   0.375  52.359  1.00  0.00     0.116 C 
HETATM   26  N4  UNL     1      25.834   1.694  52.713  1.00  0.00    -0.419 N 
HETATM   27  C20 UNL     1      26.860   2.419  52.109  1.00  0.00     0.136 C 
HETATM   28  C21 UNL     1      26.769   2.861  50.699  1.00  0.00     0.177 C 
HETATM   29  N5  UNL     1      25.849   3.772  50.352  1.00  0.00    -0.248 NA
HETATM   30  H21 UNL     1      25.554   1.989  53.672  1.00  0.00     0.153 HD
ENDROOT
TORSDOF 0
ENDMDL
MODEL 5
REMARK VINA RESULT:      -8.0      2.704      5.402
REMARK  0 active torsions:
REMARK  status: ('A' for Active; 'I' for Inactive)
ROOT
HETATM    1  C1  UNL     1      23.150   0.202  53.406  1.00  0.00     0.043 C 
HETATM    2  C2  UNL     1      23.370   1.353  52.429  1.00  0.00    -0.082 C 
HETATM    3  C3  UNL     1      24.222   2.109  53.133  1.00  0.00    -0.011 C 
HETATM    4  C4  UNL     1      24.693   3.512  53.013  1.00  0.00     0.135 C 
HETATM    5  S1  UNL     1      23.664   4.427  51.865  1.00  0.00    -0.019 SA
HETATM    6  C5  UNL     1      22.163   4.089  52.391  1.00  0.00     0.105 C 
HETATM    7  C6  UNL     1      21.125   3.174  51.854  1.00  0.00     0.075 A 
HETATM    8  N1  UNL     1      19.972   3.811  51.980  1.00  0.00    -0.241 NA
HETATM    9  C7  UNL     1      18.860   3.230  51.431  1.00  0.00     0.234 A 
HETATM   10  N2  UNL     1      18.988   2.033  50.778  1.00  0.00    -0.242 NA
HETATM   11  C8  UNL     1      20.160   1.418  50.666  1.00  0.00     0.067 A 
HETATM   12  C9  UNL     1      21.350   1.944  51.216  1.00  0.00     0.004 A 
HETATM   13  C10 UNL     1      22.564   1.107  51.181  1.00  0.00     0.077 C 
HETATM   14  C11 UNL     1      20.716   0.285  49.943  1.00  0.00     0.030 C 
HETATM   15  C12 UNL     1      21.140   1.006  48.872  1.00  0.00     0.001 C 
HETATM   16  C13 UNL     1      21.115   2.382  48.424  1.00  0.00     0.174 C 
HETATM   17  C14 UNL     1      19.835   3.062  48.300  1.00  0.00     0.074 C 
HETATM   18  N3  UNL     1      18.815   3.615  48.184  1.00  0.00    -0.196 NA
HETATM   19  C15 UNL     1      22.239   3.267  48.457  1.00  0.00     0.090 C 
HETATM   20  C16 UNL     1      23.218   3.624  49.252  1.00  0.00     0.186 C 
HETATM   21  O1  UNL     1      23.899   3.555  50.413  1.00  0.00    -0.287 OA
HETATM   22  O2  UNL     1      22.721   4.183  47.514  1.00  0.00    -0.352 OA
HETATM   23  C17 UNL     1      21.948   5.252  47.076  1.00  0.00     0.177 C 
HETATM   24  C18 UNL     1      22.533   6.595  46.946  1.00  0.00     0.046 C 
HETATM   25  C19 UNL     1      23.035   7.277  48.181  1.00  0.00     0.116 C 
HETATM   26  N4  UNL     1      24.137   6.647  48.762  1.00  0.00    -0.419 N 
HETATM   27  C20 UNL     1      24.742   7.126  49.922  1.00  0.00     0.136 C 
HETATM   28  C21 UNL     1      24.062   7.058  51.235  1.00  0.00     0.177 C 
HETATM   29  N5  UNL     1      23.824   5.862  51.791  1.00  0.00    -0.248 NA
HETATM   30  H21 UNL     1      24.730   6.072  48.127  1.00  0.00     0.153 HD
ENDROOT
TORSDOF 0
ENDMDL
MODEL 6
REMARK VINA RESULT:      -8.0     11.786     14.355
REMARK  0 active torsions:
REMARK  status: ('A' for Active; 'I' for Inactive)
ROOT
HETATM    1  C1  UNL     1      34.660   5.194  43.354  1.00  0.00     0.043 C 
HETATM    2  C2  UNL     1      33.746   6.198  44.051  1.00  0.00    -0.082 C 
HETATM    3  C3  UNL     1      34.097   7.325  43.417  1.00  0.00    -0.011 C 
HETATM    4  C4  UNL     1      33.881   8.768  43.691  1.00  0.00     0.135 C 
HETATM    5  S1  UNL     1      33.293   9.011  45.368  1.00  0.00    -0.019 SA
HETATM    6  C5  UNL     1      34.351   8.140  46.242  1.00  0.00     0.105 C 
HETATM    7  C6  UNL     1      34.219   6.814  46.894  1.00  0.00     0.075 A 
HETATM    8  N1  UNL     1      34.830   6.915  48.063  1.00  0.00    -0.241 NA
HETATM    9  C7  UNL     1      34.736   5.855  48.925  1.00  0.00     0.234 A 
HETATM   10  N2  UNL     1      34.017   4.752  48.548  1.00  0.00    -0.242 NA
HETATM   11  C8  UNL     1      33.412   4.681  47.367  1.00  0.00     0.067 A 
HETATM   12  C9  UNL     1      33.474   5.724  46.417  1.00  0.00     0.004 A 
HETATM   13  C10 UNL     1      32.910   5.480  45.076  1.00  0.00     0.077 C 
HETATM   14  C11 UNL     1      32.462   3.807  46.696  1.00  0.00     0.030 C 
HETATM   15  C12 UNL     1      31.356   4.499  47.073  1.00  0.00     0.001 C 
HETATM   16  C13 UNL     1      31.036   5.667  47.865  1.00  0.00     0.174 C 
HETATM   17  C14 UNL     1      31.472   5.722  49.252  1.00  0.00     0.074 C 
HETATM   18  N3  UNL     1      31.803   5.773  50.369  1.00  0.00    -0.196 NA
HETATM   19  C15 UNL     1      30.671   6.940  47.323  1.00  0.00     0.090 C 
HETATM   20  C16 UNL     1      31.031   7.773  46.378  1.00  0.00     0.186 C 
HETATM   21  O1  UNL     1      31.819   8.145  45.350  1.00  0.00    -0.287 OA
HETATM   22  O2  UNL     1      29.670   7.847  47.691  1.00  0.00    -0.352 OA
HETATM   23  C17 UNL     1      29.638   8.425  48.954  1.00  0.00     0.177 C 
HETATM   24  C18 UNL     1      29.365   9.861  49.113  1.00  0.00     0.046 C 
HETATM   25  C19 UNL     1      30.336  10.841  48.530  1.00  0.00     0.116 C 
HETATM   26  N4  UNL     1      30.393  10.813  47.136  1.00  0.00    -0.419 N 
HETATM   27  C20 UNL     1      31.243  11.645  46.409  1.00  0.00     0.136 C 
HETATM   28  C21 UNL     1      32.712  11.462  46.432  1.00  0.00     0.177 C 
HETATM   29  N5  UNL     1      33.246  10.358  45.892  1.00  0.00    -0.248 NA
HETATM   30  H21 UNL     1      29.543  10.468  46.644  1.00  0.00     0.153 HD
ENDROOT
TORSDOF 0
ENDMDL
MODEL 7
REMARK VINA RESULT:      -7.7     11.344     14.498
REMARK  0 active torsions:
REMARK  status: ('A' for Active; 'I' for Inactive)
ROOT
HETATM    1  C1  UNL     1      32.793  11.865  46.162  1.00  0.00     0.043 C 
HETATM    2  C2  UNL     1      33.179  10.388  46.189  1.00  0.00    -0.082 C 
HETATM    3  C3  UNL     1      33.933  10.315  45.085  1.00  0.00    -0.011 C 
HETATM    4  C4  UNL     1      34.446   9.189  44.264  1.00  0.00     0.135 C 
HETATM    5  S1  UNL     1      33.617   7.660  44.700  1.00  0.00    -0.019 SA
HETATM    6  C5  UNL     1      32.048   8.085  44.654  1.00  0.00     0.105 C 
HETATM    7  C6  UNL     1      31.082   8.365  45.744  1.00  0.00     0.075 A 
HETATM    8  N1  UNL     1      29.937   7.817  45.373  1.00  0.00    -0.241 NA
HETATM    9  C7  UNL     1      28.907   7.820  46.274  1.00  0.00     0.234 A 
HETATM   10  N2  UNL     1      29.104   8.378  47.510  1.00  0.00    -0.242 NA
HETATM   11  C8  UNL     1      30.267   8.919  47.855  1.00  0.00     0.067 A 
HETATM   12  C9  UNL     1      31.373   8.969  46.979  1.00  0.00     0.004 A 
HETATM   13  C10 UNL     1      32.561   9.736  47.397  1.00  0.00     0.077 C 
HETATM   14  C11 UNL     1      30.900   9.429  49.061  1.00  0.00     0.030 C 
HETATM   15  C12 UNL     1      31.493   8.257  49.407  1.00  0.00     0.001 C 
HETATM   16  C13 UNL     1      31.562   6.900  48.909  1.00  0.00     0.174 C 
HETATM   17  C14 UNL     1      30.329   6.152  48.718  1.00  0.00     0.074 C 
HETATM   18  N3  UNL     1      29.350   5.537  48.572  1.00  0.00    -0.196 NA
HETATM   19  C15 UNL     1      32.688   6.345  48.220  1.00  0.00     0.090 C 
HETATM   20  C16 UNL     1      33.546   6.654  47.279  1.00  0.00     0.186 C 
HETATM   21  O1  UNL     1      34.046   7.488  46.346  1.00  0.00    -0.287 OA
HETATM   22  O2  UNL     1      33.322   5.103  48.340  1.00  0.00    -0.352 OA
HETATM   23  C17 UNL     1      32.645   3.912  48.101  1.00  0.00     0.177 C 
HETATM   24  C18 UNL     1      33.271   2.841  47.313  1.00  0.00     0.046 C 
HETATM   25  C19 UNL     1      33.599   3.110  45.877  1.00  0.00     0.116 C 
HETATM   26  N4  UNL     1      34.590   4.078  45.699  1.00  0.00    -0.419 N 
HETATM   27  C20 UNL     1      35.027   4.471  44.436  1.00  0.00     0.136 C 
HETATM   28  C21 UNL     1      34.159   5.252  43.525  1.00  0.00     0.177 C 
HETATM   29  N5  UNL     1      33.816   6.505  43.854  1.00  0.00    -0.248 NA
HETATM   30  H21 UNL     1      35.258   4.207  46.488  1.00  0.00     0.153 HD
ENDROOT
TORSDOF 0
ENDMDL
MODEL 8
REMARK VINA RESULT:      -7.7      8.745     11.375
REMARK  0 active torsions:
REMARK  status: ('A' for Active; 'I' for Inactive)
ROOT
HETATM    1  C1  UNL     1      27.923   5.178  48.582  1.00  0.00     0.043 C 
HETATM    2  C2  UNL     1      27.466   6.634  48.582  1.00  0.00    -0.082 C 
HETATM    3  C3  UNL     1      26.169   6.480  48.290  1.00  0.00    -0.011 C 
HETATM    4  C4  UNL     1      25.100   7.406  47.837  1.00  0.00     0.135 C 
HETATM    5  S1  UNL     1      25.803   8.966  47.298  1.00  0.00    -0.019 SA
HETATM    6  C5  UNL     1      26.983   8.489  46.287  1.00  0.00     0.105 C 
HETATM    7  C6  UNL     1      28.455   8.431  46.466  1.00  0.00     0.075 A 
HETATM    8  N1  UNL     1      28.982   8.842  45.324  1.00  0.00    -0.241 NA
HETATM    9  C7  UNL     1      30.339   9.008  45.271  1.00  0.00     0.234 A 
HETATM   10  N2  UNL     1      31.086   8.753  46.392  1.00  0.00    -0.242 NA
HETATM   11  C8  UNL     1      30.528   8.344  47.526  1.00  0.00     0.067 A 
HETATM   12  C9  UNL     1      29.138   8.134  47.657  1.00  0.00     0.004 A 
HETATM   13  C10 UNL     1      28.639   7.522  48.903  1.00  0.00     0.077 C 
HETATM   14  C11 UNL     1      30.927   8.143  48.910  1.00  0.00     0.030 C 
HETATM   15  C12 UNL     1      30.568   9.383  49.334  1.00  0.00     0.001 C 
HETATM   16  C13 UNL     1      30.011  10.592  48.768  1.00  0.00     0.174 C 
HETATM   17  C14 UNL     1      30.696  11.235  47.658  1.00  0.00     0.074 C 
HETATM   18  N3  UNL     1      31.242  11.768  46.776  1.00  0.00    -0.196 NA
HETATM   19  C15 UNL     1      28.653  11.014  48.931  1.00  0.00     0.090 C 
HETATM   20  C16 UNL     1      27.436  10.529  48.897  1.00  0.00     0.186 C 
HETATM   21  O1  UNL     1      26.556   9.522  48.728  1.00  0.00    -0.287 OA
HETATM   22  O2  UNL     1      28.104  12.272  49.209  1.00  0.00    -0.352 OA
HETATM   23  C17 UNL     1      28.291  13.353  48.356  1.00  0.00     0.177 C 
HETATM   24  C18 UNL     1      27.168  14.238  48.013  1.00  0.00     0.046 C 
HETATM   25  C19 UNL     1      26.008  13.661  47.261  1.00  0.00     0.116 C 
HETATM   26  N4  UNL     1      25.285  12.712  47.987  1.00  0.00    -0.419 N 
HETATM   27  C20 UNL     1      24.176  12.057  47.456  1.00  0.00     0.136 C 
HETATM   28  C21 UNL     1      24.312  11.061  46.369  1.00  0.00     0.177 C 
HETATM   29  N5  UNL     1      24.946   9.905  46.610  1.00  0.00    -0.248 NA
HETATM   30  H21 UNL     1      25.333  12.788  49.025  1.00  0.00     0.153 HD
ENDROOT
TORSDOF 0
ENDMDL
MODEL 9
REMARK VINA RESULT:      -7.4     24.928     27.959
REMARK  0 active torsions:
REMARK  status: ('A' for Active; 'I' for Inactive)
ROOT
HETATM    1  C1  UNL     1      39.396  -6.277  67.802  1.00  0.00     0.043 C 
HETATM    2  C2  UNL     1      40.374  -5.130  68.040  1.00  0.00    -0.082 C 
HETATM    3  C3  UNL     1      41.338  -5.770  68.714  1.00  0.00    -0.011 C 
HETATM    4  C4  UNL     1      42.488  -5.320  69.539  1.00  0.00     0.135 C 
HETATM    5  S1  UNL     1      42.341  -3.576  69.930  1.00  0.00    -0.019 SA
HETATM    6  C5  UNL     1      40.817  -3.468  70.485  1.00  0.00     0.105 C 
HETATM    7  C6  UNL     1      39.583  -2.943  69.851  1.00  0.00     0.075 A 
HETATM    8  N1  UNL     1      38.937  -2.277  70.793  1.00  0.00    -0.241 NA
HETATM    9  C7  UNL     1      37.820  -1.577  70.428  1.00  0.00     0.234 A 
HETATM   10  N2  UNL     1      37.425  -1.589  69.116  1.00  0.00    -0.242 NA
HETATM   11  C8  UNL     1      38.096  -2.267  68.190  1.00  0.00     0.067 A 
HETATM   12  C9  UNL     1      39.249  -3.025  68.489  1.00  0.00     0.004 A 
HETATM   13  C10 UNL     1      39.822  -3.871  67.426  1.00  0.00     0.077 C 
HETATM   14  C11 UNL     1      38.104  -2.387  66.741  1.00  0.00     0.030 C 
HETATM   15  C12 UNL     1      39.044  -1.429  66.533  1.00  0.00     0.001 C 
HETATM   16  C13 UNL     1      39.832  -0.508  67.321  1.00  0.00     0.174 C 
HETATM   17  C14 UNL     1      39.153   0.433  68.200  1.00  0.00     0.074 C 
HETATM   18  N3  UNL     1      38.622   1.200  68.898  1.00  0.00    -0.196 NA
HETATM   19  C15 UNL     1      41.221  -0.678  67.620  1.00  0.00     0.090 C 
HETATM   20  C16 UNL     1      42.063  -1.607  68.003  1.00  0.00     0.186 C 
HETATM   21  O1  UNL     1      42.363  -2.867  68.374  1.00  0.00    -0.287 OA
HETATM   22  O2  UNL     1      42.286   0.231  67.611  1.00  0.00    -0.352 OA
HETATM   23  C17 UNL     1      42.293   1.354  68.431  1.00  0.00     0.177 C 
HETATM   24  C18 UNL     1      43.508   1.737  69.166  1.00  0.00     0.046 C 
HETATM   25  C19 UNL     1      44.039   0.797  70.204  1.00  0.00     0.116 C 
HETATM   26  N4  UNL     1      44.507  -0.410  69.682  1.00  0.00    -0.419 N 
HETATM   27  C20 UNL     1      45.032  -1.416  70.491  1.00  0.00     0.136 C 
HETATM   28  C21 UNL     1      44.175  -2.194  71.414  1.00  0.00     0.177 C 
HETATM   29  N5  UNL     1      43.241  -3.014  70.911  1.00  0.00    -0.248 NA
HETATM   30  H21 UNL     1      44.821  -0.395  68.689  1.00  0.00     0.153 HD
ENDROOT
TORSDOF 0
ENDMDL
