MODEL 1
REMARK VINA RESULT:      -8.0      0.000      0.000
REMARK  5 active torsions:
REMARK  status: ('A' for Active; 'I' for Inactive)
REMARK    1  A    between atoms: O1_2  and  C2_3 
REMARK    2  A    between atoms: C5_6  and  O2_7 
REMARK    3  A    between atoms: O2_7  and  C6_8 
REMARK       I    between atoms: C6_8  and  N1_10 
REMARK    4  A    between atoms: N1_10  and  S1_11 
REMARK    5  A    between atoms: S1_11  and  C7_14 
ROOT
HETATM    1  C6  UNL     1      26.013   2.591  50.990  1.00  0.00     0.379 C 
HETATM    2  O3  UNL     1      24.973   2.031  51.467  1.00  0.00    -0.237 OA
HETATM    3  N1  UNL     1      27.255   2.760  51.698  1.00  0.00    -0.225 N 
HETATM    4  H6  UNL     1      28.048   3.239  51.205  1.00  0.00     0.184 HD
ENDROOT
BRANCH   3   5
HETATM    5  S1  UNL     1      27.351   2.157  53.317  1.00  0.00     0.267 S 
HETATM    6  O4  UNL     1      28.478   2.763  54.078  1.00  0.00    -0.200 OA
HETATM    7  O5  UNL     1      26.078   2.430  54.064  1.00  0.00    -0.200 OA
BRANCH   5   8
HETATM    8  C7  UNL     1      27.681   0.433  53.188  1.00  0.00     0.080 A 
HETATM    9  C8  UNL     1      26.749  -0.481  52.750  1.00  0.00     0.028 A 
HETATM   10  C9  UNL     1      27.087  -1.815  52.678  1.00  0.00     0.044 A 
HETATM   11  C10 UNL     1      28.349  -2.251  53.039  1.00  0.00     0.116 A 
HETATM   12  F1  UNL     1      28.666  -3.567  52.962  1.00  0.00    -0.206 F 
HETATM   13  C11 UNL     1      29.307  -1.369  53.481  1.00  0.00     0.044 A 
HETATM   14  C12 UNL     1      28.926  -0.047  53.536  1.00  0.00     0.028 A 
ENDBRANCH   5   8
ENDBRANCH   3   5
BRANCH   1  15
HETATM   15  O2  UNL     1      25.949   3.084  49.680  1.00  0.00    -0.261 OA
BRANCH  15  16
HETATM   16  C5  UNL     1      26.191   4.445  49.513  1.00  0.00     0.081 A 
HETATM   17  C4  UNL     1      25.445   5.503  49.984  1.00  0.00     0.040 A 
HETATM   18  C3  UNL     1      25.850   6.790  49.713  1.00  0.00     0.039 A 
HETATM   19  C2  UNL     1      26.975   7.041  48.987  1.00  0.00     0.068 A 
HETATM   20  C14 UNL     1      27.736   5.994  48.507  1.00  0.00     0.039 A 
HETATM   21  C13 UNL     1      27.347   4.677  48.767  1.00  0.00     0.040 A 
BRANCH  19  22
HETATM   22  O1  UNL     1      27.392   8.309  48.707  1.00  0.00    -0.356 OA
HETATM   23  C1  UNL     1      28.700   8.797  48.926  1.00  0.00     0.210 C 
ENDBRANCH  19  22
ENDBRANCH  15  16
ENDBRANCH   1  15
TORSDOF 5
ENDMDL
MODEL 2
REMARK VINA RESULT:      -7.8      3.359      4.455
REMARK  5 active torsions:
REMARK  status: ('A' for Active; 'I' for Inactive)
REMARK    1  A    between atoms: O1_2  and  C2_3 
REMARK    2  A    between atoms: C5_6  and  O2_7 
REMARK    3  A    between atoms: O2_7  and  C6_8 
REMARK       I    between atoms: C6_8  and  N1_10 
REMARK    4  A    between atoms: N1_10  and  S1_11 
REMARK    5  A    between atoms: S1_11  and  C7_14 
ROOT
HETATM    1  C6  UNL     1      27.101   1.798  52.675  1.00  0.00     0.379 C 
HETATM    2  O3  UNL     1      26.932   2.286  53.840  1.00  0.00    -0.237 OA
HETATM    3  N1  UNL     1      27.092   0.393  52.361  1.00  0.00    -0.225 N 
HETATM    4  H6  UNL     1      27.243   0.104  51.364  1.00  0.00     0.184 HD
ENDROOT
BRANCH   3   5
HETATM    5  S1  UNL     1      26.831  -0.723  53.658  1.00  0.00     0.267 S 
HETATM    6  O4  UNL     1      27.194  -2.117  53.283  1.00  0.00    -0.200 OA
HETATM    7  O5  UNL     1      27.636  -0.335  54.865  1.00  0.00    -0.200 OA
BRANCH   5   8
HETATM    8  C7  UNL     1      25.102  -0.708  53.988  1.00  0.00     0.080 A 
HETATM    9  C8  UNL     1      24.171  -0.217  53.101  1.00  0.00     0.028 A 
HETATM   10  C9  UNL     1      22.834  -0.242  53.436  1.00  0.00     0.044 A 
HETATM   11  C10 UNL     1      22.413  -0.752  54.650  1.00  0.00     0.116 A 
HETATM   12  F1  UNL     1      21.094  -0.769  54.964  1.00  0.00    -0.206 F 
HETATM   13  C11 UNL     1      23.313  -1.251  55.563  1.00  0.00     0.044 A 
HETATM   14  C12 UNL     1      24.636  -1.207  55.187  1.00  0.00     0.028 A 
ENDBRANCH   5   8
ENDBRANCH   3   5
BRANCH   1  15
HETATM   15  O2  UNL     1      27.313   2.690  51.616  1.00  0.00    -0.261 OA
BRANCH  15  16
HETATM   16  C5  UNL     1      26.191   3.072  50.887  1.00  0.00     0.081 A 
HETATM   17  C4  UNL     1      24.896   2.622  51.025  1.00  0.00     0.040 A 
HETATM   18  C3  UNL     1      23.914   3.124  50.202  1.00  0.00     0.039 A 
HETATM   19  C2  UNL     1      24.194   4.059  49.252  1.00  0.00     0.068 A 
HETATM   20  C14 UNL     1      25.486   4.523  49.099  1.00  0.00     0.039 A 
HETATM   21  C13 UNL     1      26.502   4.029  49.921  1.00  0.00     0.040 A 
BRANCH  19  22
HETATM   22  O1  UNL     1      23.235   4.569  48.427  1.00  0.00    -0.356 OA
HETATM   23  C1  UNL     1      22.279   3.800  47.727  1.00  0.00     0.210 C 
ENDBRANCH  19  22
ENDBRANCH  15  16
ENDBRANCH   1  15
TORSDOF 5
ENDMDL
MODEL 3
REMARK VINA RESULT:      -7.7      1.320      1.888
REMARK  5 active torsions:
REMARK  status: ('A' for Active; 'I' for Inactive)
REMARK    1  A    between atoms: O1_2  and  C2_3 
REMARK    2  A    between atoms: C5_6  and  O2_7 
REMARK    3  A    between atoms: O2_7  and  C6_8 
REMARK       I    between atoms: C6_8  and  N1_10 
REMARK    4  A    between atoms: N1_10  and  S1_11 
REMARK    5  A    between atoms: S1_11  and  C7_14 
ROOT
HETATM    1  C6  UNL     1      26.475   2.506  50.914  1.00  0.00     0.379 C 
HETATM    2  O3  UNL     1      27.499   2.836  51.597  1.00  0.00    -0.237 OA
HETATM    3  N1  UNL     1      25.346   1.775  51.424  1.00  0.00    -0.225 N 
HETATM    4  H6  UNL     1      24.556   1.557  50.769  1.00  0.00     0.184 HD
ENDROOT
BRANCH   3   5
HETATM    5  S1  UNL     1      25.372   1.305  53.090  1.00  0.00     0.267 S 
HETATM    6  O4  UNL     1      25.445   2.478  54.005  1.00  0.00    -0.200 OA
HETATM    7  O5  UNL     1      24.148   0.510  53.440  1.00  0.00    -0.200 OA
BRANCH   5   8
HETATM    8  C7  UNL     1      26.849   0.375  53.321  1.00  0.00     0.080 A 
HETATM    9  C8  UNL     1      27.096  -0.817  52.678  1.00  0.00     0.028 A 
HETATM   10  C9  UNL     1      28.278  -1.485  52.915  1.00  0.00     0.044 A 
HETATM   11  C10 UNL     1      29.222  -0.975  53.788  1.00  0.00     0.116 A 
HETATM   12  F1  UNL     1      30.380  -1.644  54.009  1.00  0.00    -0.206 F 
HETATM   13  C11 UNL     1      29.012   0.212  54.449  1.00  0.00     0.044 A 
HETATM   14  C12 UNL     1      27.818   0.845  54.183  1.00  0.00     0.028 A 
ENDBRANCH   5   8
ENDBRANCH   3   5
BRANCH   1  15
HETATM   15  O2  UNL     1      26.441   2.880  49.564  1.00  0.00    -0.261 OA
BRANCH  15  16
HETATM   16  C5  UNL     1      26.693   4.219  49.280  1.00  0.00     0.081 A 
HETATM   17  C4  UNL     1      27.763   4.755  48.599  1.00  0.00     0.040 A 
HETATM   18  C3  UNL     1      27.836   6.117  48.417  1.00  0.00     0.039 A 
HETATM   19  C2  UNL     1      26.871   6.949  48.898  1.00  0.00     0.068 A 
HETATM   20  C14 UNL     1      25.790   6.431  49.583  1.00  0.00     0.039 A 
HETATM   21  C13 UNL     1      25.692   5.051  49.782  1.00  0.00     0.040 A 
BRANCH  19  22
HETATM   22  O1  UNL     1      26.926   8.302  48.728  1.00  0.00    -0.356 OA
HETATM   23  C1  UNL     1      27.647   9.192  49.554  1.00  0.00     0.210 C 
ENDBRANCH  19  22
ENDBRANCH  15  16
ENDBRANCH   1  15
TORSDOF 5
ENDMDL
MODEL 4
REMARK VINA RESULT:      -7.7      3.406      7.534
REMARK  5 active torsions:
REMARK  status: ('A' for Active; 'I' for Inactive)
REMARK    1  A    between atoms: O1_2  and  C2_3 
REMARK    2  A    between atoms: C5_6  and  O2_7 
REMARK    3  A    between atoms: O2_7  and  C6_8 
REMARK       I    between atoms: C6_8  and  N1_10 
REMARK    4  A    between atoms: N1_10  and  S1_11 
REMARK    5  A    between atoms: S1_11  and  C7_14 
ROOT
HETATM    1  C6  UNL     1      24.030   3.010  52.224  1.00  0.00     0.379 C 
HETATM    2  O3  UNL     1      22.811   2.832  51.899  1.00  0.00    -0.237 OA
HETATM    3  N1  UNL     1      25.000   3.715  51.427  1.00  0.00    -0.225 N 
HETATM    4  H6  UNL     1      25.979   3.801  51.795  1.00  0.00     0.184 HD
ENDROOT
BRANCH   3   5
HETATM    5  S1  UNL     1      24.478   4.373  49.914  1.00  0.00     0.267 S 
HETATM    6  O4  UNL     1      23.996   3.319  48.978  1.00  0.00    -0.200 OA
HETATM    7  O5  UNL     1      23.371   5.366  50.116  1.00  0.00    -0.200 OA
BRANCH   5   8
HETATM    8  C7  UNL     1      25.897   5.110  49.176  1.00  0.00     0.080 A 
HETATM    9  C8  UNL     1      27.107   4.465  49.063  1.00  0.00     0.028 A 
HETATM   10  C9  UNL     1      28.170   5.113  48.472  1.00  0.00     0.044 A 
HETATM   11  C10 UNL     1      28.040   6.403  47.990  1.00  0.00     0.116 A 
HETATM   12  F1  UNL     1      29.095   7.026  47.411  1.00  0.00    -0.206 F 
HETATM   13  C11 UNL     1      26.847   7.080  48.084  1.00  0.00     0.044 A 
HETATM   14  C12 UNL     1      25.813   6.395  48.681  1.00  0.00     0.028 A 
ENDBRANCH   5   8
ENDBRANCH   3   5
BRANCH   1  15
HETATM   15  O2  UNL     1      24.465   2.483  53.446  1.00  0.00    -0.261 OA
BRANCH  15  16
HETATM   16  C5  UNL     1      25.368   1.424  53.383  1.00  0.00     0.081 A 
HETATM   17  C4  UNL     1      25.261   0.261  52.655  1.00  0.00     0.040 A 
HETATM   18  C3  UNL     1      26.267  -0.676  52.723  1.00  0.00     0.039 A 
HETATM   19  C2  UNL     1      27.369  -0.476  53.498  1.00  0.00     0.068 A 
HETATM   20  C14 UNL     1      27.496   0.685  54.235  1.00  0.00     0.039 A 
HETATM   21  C13 UNL     1      26.488   1.651  54.184  1.00  0.00     0.040 A 
BRANCH  19  22
HETATM   22  O1  UNL     1      28.377  -1.392  53.579  1.00  0.00    -0.356 OA
HETATM   23  C1  UNL     1      29.754  -1.081  53.588  1.00  0.00     0.210 C 
ENDBRANCH  19  22
ENDBRANCH  15  16
ENDBRANCH   1  15
TORSDOF 5
ENDMDL
MODEL 5
REMARK VINA RESULT:      -7.7      4.059      6.728
REMARK  5 active torsions:
REMARK  status: ('A' for Active; 'I' for Inactive)
REMARK    1  A    between atoms: O1_2  and  C2_3 
REMARK    2  A    between atoms: C5_6  and  O2_7 
REMARK    3  A    between atoms: O2_7  and  C6_8 
REMARK       I    between atoms: C6_8  and  N1_10 
REMARK    4  A    between atoms: N1_10  and  S1_11 
REMARK    5  A    between atoms: S1_11  and  C7_14 
ROOT
HETATM    1  C6  UNL     1      24.680   2.902  51.994  1.00  0.00     0.379 C 
HETATM    2  O3  UNL     1      24.409   3.190  53.205  1.00  0.00    -0.237 OA
HETATM    3  N1  UNL     1      23.702   2.618  50.977  1.00  0.00    -0.225 N 
HETATM    4  H6  UNL     1      24.040   2.391  50.010  1.00  0.00     0.184 HD
ENDROOT
BRANCH   3   5
HETATM    5  S1  UNL     1      22.031   2.669  51.425  1.00  0.00     0.267 S 
HETATM    6  O4  UNL     1      21.694   3.892  52.204  1.00  0.00    -0.200 OA
HETATM    7  O5  UNL     1      21.151   2.627  50.210  1.00  0.00    -0.200 OA
BRANCH   5   8
HETATM    8  C7  UNL     1      21.757   1.289  52.483  1.00  0.00     0.080 A 
HETATM    9  C8  UNL     1      20.763   1.257  53.435  1.00  0.00     0.028 A 
HETATM   10  C9  UNL     1      20.614   0.137  54.225  1.00  0.00     0.044 A 
HETATM   11  C10 UNL     1      21.448  -0.956  54.076  1.00  0.00     0.116 A 
HETATM   12  F1  UNL     1      21.288  -2.049  54.861  1.00  0.00    -0.206 F 
HETATM   13  C11 UNL     1      22.452  -0.961  53.137  1.00  0.00     0.044 A 
HETATM   14  C12 UNL     1      22.564   0.177  52.370  1.00  0.00     0.028 A 
ENDBRANCH   5   8
ENDBRANCH   3   5
BRANCH   1  15
HETATM   15  O2  UNL     1      26.029   2.857  51.618  1.00  0.00    -0.261 OA
BRANCH  15  16
HETATM   16  C5  UNL     1      26.821   1.903  52.250  1.00  0.00     0.081 A 
HETATM   17  C4  UNL     1      27.909   2.111  53.068  1.00  0.00     0.040 A 
HETATM   18  C3  UNL     1      28.569   1.029  53.605  1.00  0.00     0.039 A 
HETATM   19  C2  UNL     1      28.169  -0.246  53.343  1.00  0.00     0.068 A 
HETATM   20  C14 UNL     1      27.080  -0.476  52.526  1.00  0.00     0.039 A 
HETATM   21  C13 UNL     1      26.393   0.605  51.967  1.00  0.00     0.040 A 
BRANCH  19  22
HETATM   22  O1  UNL     1      28.811  -1.331  53.865  1.00  0.00    -0.356 OA
HETATM   23  C1  UNL     1      29.006  -2.557  53.191  1.00  0.00     0.210 C 
ENDBRANCH  19  22
ENDBRANCH  15  16
ENDBRANCH   1  15
TORSDOF 5
ENDMDL
MODEL 6
REMARK VINA RESULT:      -7.6      3.072      3.563
REMARK  5 active torsions:
REMARK  status: ('A' for Active; 'I' for Inactive)
REMARK    1  A    between atoms: O1_2  and  C2_3 
REMARK    2  A    between atoms: C5_6  and  O2_7 
REMARK    3  A    between atoms: O2_7  and  C6_8 
REMARK       I    between atoms: C6_8  and  N1_10 
REMARK    4  A    between atoms: N1_10  and  S1_11 
REMARK    5  A    between atoms: S1_11  and  C7_14 
ROOT
HETATM    1  C6  UNL     1      26.678   2.177  51.223  1.00  0.00     0.379 C 
HETATM    2  O3  UNL     1      27.698   2.522  51.904  1.00  0.00    -0.237 OA
HETATM    3  N1  UNL     1      25.600   1.358  51.712  1.00  0.00    -0.225 N 
HETATM    4  H6  UNL     1      24.808   1.136  51.061  1.00  0.00     0.184 HD
ENDROOT
BRANCH   3   5
HETATM    5  S1  UNL     1      25.689   0.797  53.347  1.00  0.00     0.267 S 
HETATM    6  O4  UNL     1      26.758  -0.222  53.535  1.00  0.00    -0.200 OA
HETATM    7  O5  UNL     1      25.951   1.936  54.289  1.00  0.00    -0.200 OA
BRANCH   5   8
HETATM    8  C7  UNL     1      24.153   0.004  53.685  1.00  0.00     0.080 A 
HETATM    9  C8  UNL     1      23.045   0.137  52.880  1.00  0.00     0.028 A 
HETATM   10  C9  UNL     1      21.879  -0.517  53.216  1.00  0.00     0.044 A 
HETATM   11  C10 UNL     1      21.805  -1.306  54.350  1.00  0.00     0.116 A 
HETATM   12  F1  UNL     1      20.652  -1.943  54.665  1.00  0.00    -0.206 F 
HETATM   13  C11 UNL     1      22.892  -1.464  55.178  1.00  0.00     0.044 A 
HETATM   14  C12 UNL     1      24.034  -0.793  54.805  1.00  0.00     0.028 A 
ENDBRANCH   5   8
ENDBRANCH   3   5
BRANCH   1  15
HETATM   15  O2  UNL     1      26.593   2.624  49.898  1.00  0.00    -0.261 OA
BRANCH  15  16
HETATM   16  C5  UNL     1      26.417   3.993  49.711  1.00  0.00     0.081 A 
HETATM   17  C4  UNL     1      25.450   4.806  50.259  1.00  0.00     0.040 A 
HETATM   18  C3  UNL     1      25.441   6.147  49.951  1.00  0.00     0.039 A 
HETATM   19  C2  UNL     1      26.369   6.690  49.115  1.00  0.00     0.068 A 
HETATM   20  C14 UNL     1      27.347   5.891  48.556  1.00  0.00     0.039 A 
HETATM   21  C13 UNL     1      27.379   4.525  48.852  1.00  0.00     0.040 A 
BRANCH  19  22
HETATM   22  O1  UNL     1      26.376   8.016  48.798  1.00  0.00    -0.356 OA
HETATM   23  C1  UNL     1      26.952   9.034  49.590  1.00  0.00     0.210 C 
ENDBRANCH  19  22
ENDBRANCH  15  16
ENDBRANCH   1  15
TORSDOF 5
ENDMDL
MODEL 7
REMARK VINA RESULT:      -7.4      3.607      7.154
REMARK  5 active torsions:
REMARK  status: ('A' for Active; 'I' for Inactive)
REMARK    1  A    between atoms: O1_2  and  C2_3 
REMARK    2  A    between atoms: C5_6  and  O2_7 
REMARK    3  A    between atoms: O2_7  and  C6_8 
REMARK       I    between atoms: C6_8  and  N1_10 
REMARK    4  A    between atoms: N1_10  and  S1_11 
REMARK    5  A    between atoms: S1_11  and  C7_14 
ROOT
HETATM    1  C6  UNL     1      23.455   2.260  52.216  1.00  0.00     0.379 C 
HETATM    2  O3  UNL     1      23.235   3.466  52.562  1.00  0.00    -0.237 OA
HETATM    3  N1  UNL     1      23.369   1.761  50.869  1.00  0.00    -0.225 N 
HETATM    4  H6  UNL     1      23.571   0.746  50.700  1.00  0.00     0.184 HD
ENDROOT
BRANCH   3   5
HETATM    5  S1  UNL     1      22.936   2.878  49.620  1.00  0.00     0.267 S 
HETATM    6  O4  UNL     1      22.620   2.193  48.336  1.00  0.00    -0.200 OA
HETATM    7  O5  UNL     1      21.743   3.695  50.024  1.00  0.00    -0.200 OA
BRANCH   5   8
HETATM    8  C7  UNL     1      24.354   3.882  49.336  1.00  0.00     0.080 A 
HETATM    9  C8  UNL     1      24.277   5.197  48.936  1.00  0.00     0.028 A 
HETATM   10  C9  UNL     1      25.437   5.915  48.735  1.00  0.00     0.044 A 
HETATM   11  C10 UNL     1      26.677   5.335  48.928  1.00  0.00     0.116 A 
HETATM   12  F1  UNL     1      27.807   6.055  48.726  1.00  0.00    -0.206 F 
HETATM   13  C11 UNL     1      26.795   4.024  49.327  1.00  0.00     0.044 A 
HETATM   14  C12 UNL     1      25.612   3.346  49.516  1.00  0.00     0.028 A 
ENDBRANCH   5   8
ENDBRANCH   3   5
BRANCH   1  15
HETATM   15  O2  UNL     1      23.805   1.345  53.218  1.00  0.00    -0.261 OA
BRANCH  15  16
HETATM   16  C5  UNL     1      25.131   0.921  53.239  1.00  0.00     0.081 A 
HETATM   17  C4  UNL     1      25.620  -0.346  53.014  1.00  0.00     0.040 A 
HETATM   18  C3  UNL     1      26.977  -0.570  53.080  1.00  0.00     0.039 A 
HETATM   19  C2  UNL     1      27.848   0.437  53.364  1.00  0.00     0.068 A 
HETATM   20  C14 UNL     1      27.378   1.715  53.592  1.00  0.00     0.039 A 
HETATM   21  C13 UNL     1      26.005   1.970  53.532  1.00  0.00     0.040 A 
BRANCH  19  22
HETATM   22  O1  UNL     1      29.195   0.235  53.434  1.00  0.00    -0.356 OA
HETATM   23  C1  UNL     1      29.816  -1.015  53.648  1.00  0.00     0.210 C 
ENDBRANCH  19  22
ENDBRANCH  15  16
ENDBRANCH   1  15
TORSDOF 5
ENDMDL
MODEL 8
REMARK VINA RESULT:      -7.0      4.849      7.205
REMARK  5 active torsions:
REMARK  status: ('A' for Active; 'I' for Inactive)
REMARK    1  A    between atoms: O1_2  and  C2_3 
REMARK    2  A    between atoms: C5_6  and  O2_7 
REMARK    3  A    between atoms: O2_7  and  C6_8 
REMARK       I    between atoms: C6_8  and  N1_10 
REMARK    4  A    between atoms: N1_10  and  S1_11 
REMARK    5  A    between atoms: S1_11  and  C7_14 
ROOT
HETATM    1  C6  UNL     1      22.856   1.849  51.092  1.00  0.00     0.379 C 
HETATM    2  O3  UNL     1      22.505   3.072  51.160  1.00  0.00    -0.237 OA
HETATM    3  N1  UNL     1      24.124   1.330  51.533  1.00  0.00    -0.225 N 
HETATM    4  H6  UNL     1      24.306   0.302  51.427  1.00  0.00     0.184 HD
ENDROOT
BRANCH   3   5
HETATM    5  S1  UNL     1      25.263   2.446  52.207  1.00  0.00     0.267 S 
HETATM    6  O4  UNL     1      25.766   3.417  51.197  1.00  0.00    -0.200 OA
HETATM    7  O5  UNL     1      24.648   3.218  53.338  1.00  0.00    -0.200 OA
BRANCH   5   8
HETATM    8  C7  UNL     1      26.642   1.489  52.738  1.00  0.00     0.080 A 
HETATM    9  C8  UNL     1      26.745   0.133  52.523  1.00  0.00     0.028 A 
HETATM   10  C9  UNL     1      27.859  -0.544  52.971  1.00  0.00     0.044 A 
HETATM   11  C10 UNL     1      28.877   0.119  53.633  1.00  0.00     0.116 A 
HETATM   12  F1  UNL     1      29.965  -0.562  54.067  1.00  0.00    -0.206 F 
HETATM   13  C11 UNL     1      28.810   1.472  53.866  1.00  0.00     0.044 A 
HETATM   14  C12 UNL     1      27.681   2.107  53.402  1.00  0.00     0.028 A 
ENDBRANCH   5   8
ENDBRANCH   3   5
BRANCH   1  15
HETATM   15  O2  UNL     1      21.944   0.935  50.548  1.00  0.00    -0.261 OA
BRANCH  15  16
HETATM   16  C5  UNL     1      20.971   0.435  51.409  1.00  0.00     0.081 A 
HETATM   17  C4  UNL     1      21.129   0.008  52.709  1.00  0.00     0.040 A 
HETATM   18  C3  UNL     1      20.036  -0.457  53.405  1.00  0.00     0.039 A 
HETATM   19  C2  UNL     1      18.800  -0.506  52.835  1.00  0.00     0.068 A 
HETATM   20  C14 UNL     1      18.622  -0.081  51.533  1.00  0.00     0.039 A 
HETATM   21  C13 UNL     1      19.715   0.396  50.804  1.00  0.00     0.040 A 
BRANCH  19  22
HETATM   22  O1  UNL     1      17.706  -0.964  53.509  1.00  0.00    -0.356 OA
HETATM   23  C1  UNL     1      16.834  -1.973  53.044  1.00  0.00     0.210 C 
ENDBRANCH  19  22
ENDBRANCH  15  16
ENDBRANCH   1  15
TORSDOF 5
ENDMDL
MODEL 9
REMARK VINA RESULT:      -6.7      3.744      5.011
REMARK  5 active torsions:
REMARK  status: ('A' for Active; 'I' for Inactive)
REMARK    1  A    between atoms: O1_2  and  C2_3 
REMARK    2  A    between atoms: C5_6  and  O2_7 
REMARK    3  A    between atoms: O2_7  and  C6_8 
REMARK       I    between atoms: C6_8  and  N1_10 
REMARK    4  A    between atoms: N1_10  and  S1_11 
REMARK    5  A    between atoms: S1_11  and  C7_14 
ROOT
HETATM    1  C6  UNL     1      25.764   2.066  52.017  1.00  0.00     0.379 C 
HETATM    2  O3  UNL     1      25.315   2.815  52.945  1.00  0.00    -0.237 OA
HETATM    3  N1  UNL     1      26.275   0.734  52.209  1.00  0.00    -0.225 N 
HETATM    4  H6  UNL     1      26.621   0.208  51.370  1.00  0.00     0.184 HD
ENDROOT
BRANCH   3   5
HETATM    5  S1  UNL     1      26.283   0.095  53.817  1.00  0.00     0.267 S 
HETATM    6  O4  UNL     1      27.207  -1.063  53.959  1.00  0.00    -0.200 OA
HETATM    7  O5  UNL     1      26.690   1.147  54.808  1.00  0.00    -0.200 OA
BRANCH   5   8
HETATM    8  C7  UNL     1      24.655  -0.501  54.123  1.00  0.00     0.080 A 
HETATM    9  C8  UNL     1      24.276  -1.074  55.316  1.00  0.00     0.028 A 
HETATM   10  C9  UNL     1      22.980  -1.517  55.476  1.00  0.00     0.044 A 
HETATM   11  C10 UNL     1      22.054  -1.394  54.457  1.00  0.00     0.116 A 
HETATM   12  F1  UNL     1      20.784  -1.834  54.630  1.00  0.00    -0.206 F 
HETATM   13  C11 UNL     1      22.395  -0.827  53.251  1.00  0.00     0.044 A 
HETATM   14  C12 UNL     1      23.698  -0.399  53.135  1.00  0.00     0.028 A 
ENDBRANCH   5   8
ENDBRANCH   3   5
BRANCH   1  15
HETATM   15  O2  UNL     1      25.765   2.571  50.710  1.00  0.00    -0.261 OA
BRANCH  15  16
HETATM   16  C5  UNL     1      24.588   3.173  50.273  1.00  0.00     0.081 A 
HETATM   17  C4  UNL     1      24.406   4.469  49.846  1.00  0.00     0.040 A 
HETATM   18  C3  UNL     1      23.154   4.881  49.449  1.00  0.00     0.039 A 
HETATM   19  C2  UNL     1      22.089   4.034  49.470  1.00  0.00     0.068 A 
HETATM   20  C14 UNL     1      22.251   2.729  49.894  1.00  0.00     0.039 A 
HETATM   21  C13 UNL     1      23.511   2.286  50.304  1.00  0.00     0.040 A 
BRANCH  19  22
HETATM   22  O1  UNL     1      20.841   4.423  49.080  1.00  0.00    -0.356 OA
HETATM   23  C1  UNL     1      19.640   3.775  49.446  1.00  0.00     0.210 C 
ENDBRANCH  19  22
ENDBRANCH  15  16
ENDBRANCH   1  15
TORSDOF 5
ENDMDL
