MODEL 1
REMARK VINA RESULT:      -7.8      0.000      0.000
REMARK  12 active torsions:
REMARK  status: ('A' for Active; 'I' for Inactive)
REMARK    1  A    between atoms: C2_2  and  C3_3 
REMARK    2  A    between atoms: C4_4  and  C5_5 
REMARK    3  A    between atoms: C5_5  and  C6_6 
REMARK    4  A    between atoms: C6_6  and  C7_7 
REMARK    5  A    between atoms: C7_7  and  C8_8 
REMARK    6  A    between atoms: C7_7  and  N1_10 
REMARK    7  A    between atoms: C8_8  and  O1_9 
REMARK    8  A    between atoms: N1_10  and  C9_11 
REMARK       I    between atoms: N4_22  and  C17_23 
REMARK    9  A    between atoms: C17_23  and  C18_25 
REMARK   10  A    between atoms: C18_25  and  C19_26 
REMARK   11  A    between atoms: C19_26  and  C20_27 
REMARK   12  A    between atoms: C20_27  and  N5_28 
ROOT
HETATM    1  C9  UNL     1      26.933   2.295  52.289  1.00  0.00     0.139 A 
HETATM    2  N2  UNL     1      28.177   2.404  52.735  1.00  0.00    -0.224 NA
HETATM    3  C10 UNL     1      28.751   1.641  53.629  1.00  0.00     0.236 A 
HETATM    4  N3  UNL     1      27.976   0.672  54.113  1.00  0.00    -0.234 NA
HETATM    5  C11 UNL     1      26.691   0.521  53.685  1.00  0.00     0.114 A 
HETATM    6  S1  UNL     1      25.389  -0.644  54.113  1.00  0.00    -0.072 SA
HETATM    7  C12 UNL     1      24.173   0.028  53.023  1.00  0.00     0.010 A 
HETATM    8  C13 UNL     1      24.804   1.155  52.339  1.00  0.00    -0.025 A 
HETATM    9  C14 UNL     1      26.088   1.321  52.748  1.00  0.00     0.053 A 
HETATM   10  C15 UNL     1      23.699   1.593  51.498  1.00  0.00     0.060 C 
HETATM   11  C16 UNL     1      22.469   1.917  52.358  1.00  0.00     0.131 C 
HETATM   12  N4  UNL     1      21.850   0.697  52.823  1.00  0.00    -0.347 N 
HETATM   13  C17 UNL     1      20.488   0.776  53.213  1.00  0.00     0.220 C 
HETATM   14  O2  UNL     1      20.285   1.996  52.991  1.00  0.00    -0.273 OA
HETATM   15  C23 UNL     1      22.759  -0.435  52.811  1.00  0.00     0.172 C 
ENDROOT
BRANCH   1  16
HETATM   16  N1  UNL     1      26.717   3.276  51.308  1.00  0.00    -0.367 N 
HETATM   17  H16 UNL     1      27.099   4.156  51.624  1.00  0.00     0.161 HD
BRANCH  16  18
HETATM   18  C7  UNL     1      26.172   3.573  50.026  1.00  0.00     0.107 C 
BRANCH  18  19
HETATM   19  C6  UNL     1      27.090   4.146  49.016  1.00  0.00     0.031 C 
BRANCH  19  20
HETATM   20  C5  UNL     1      27.061   5.608  48.775  1.00  0.00     0.029 C 
BRANCH  20  21
HETATM   21  C4  UNL     1      28.293   6.100  48.069  1.00  0.00    -0.031 C 
HETATM   22  C3  UNL     1      29.518   5.635  48.290  1.00  0.00    -0.031 C 
BRANCH  22  23
HETATM   23  C2  UNL     1      30.883   5.906  47.774  1.00  0.00     0.022 C 
HETATM   24  C1  UNL     1      31.606   4.632  47.394  1.00  0.00     0.009 C 
ENDBRANCH  22  23
ENDBRANCH  20  21
ENDBRANCH  19  20
ENDBRANCH  18  19
BRANCH  18  25
HETATM   25  C8  UNL     1      24.945   4.506  50.125  1.00  0.00     0.189 C 
BRANCH  25  26
HETATM   26  O1  UNL     1      24.743   4.919  51.433  1.00  0.00    -0.399 OA
HETATM   27  H15 UNL     1      25.281   5.706  51.631  1.00  0.00     0.209 HD
ENDBRANCH  25  26
ENDBRANCH  18  25
ENDBRANCH  16  18
ENDBRANCH   1  16
BRANCH  13  28
HETATM   28  C18 UNL     1      19.785  -0.418  53.701  1.00  0.00     0.105 C 
BRANCH  28  29
HETATM   29  C19 UNL     1      18.482  -0.681  52.980  1.00  0.00     0.039 C 
BRANCH  29  30
HETATM   30  C20 UNL     1      18.595  -0.254  51.543  1.00  0.00     0.271 C 
BRANCH  30  31
HETATM   31  N5  UNL     1      17.438   0.410  51.025  1.00  0.00     0.080 N 
HETATM   32  C21 UNL     1      17.679   1.663  50.384  1.00  0.00     0.309 C 
HETATM   33  C22 UNL     1      16.320   0.413  51.915  1.00  0.00     0.309 C 
ENDBRANCH  30  31
ENDBRANCH  29  30
ENDBRANCH  28  29
ENDBRANCH  13  28
TORSDOF 12
ENDMDL
MODEL 2
REMARK VINA RESULT:      -7.8      2.555      4.037
REMARK  12 active torsions:
REMARK  status: ('A' for Active; 'I' for Inactive)
REMARK    1  A    between atoms: C2_2  and  C3_3 
REMARK    2  A    between atoms: C4_4  and  C5_5 
REMARK    3  A    between atoms: C5_5  and  C6_6 
REMARK    4  A    between atoms: C6_6  and  C7_7 
REMARK    5  A    between atoms: C7_7  and  C8_8 
REMARK    6  A    between atoms: C7_7  and  N1_10 
REMARK    7  A    between atoms: C8_8  and  O1_9 
REMARK    8  A    between atoms: N1_10  and  C9_11 
REMARK       I    between atoms: N4_22  and  C17_23 
REMARK    9  A    between atoms: C17_23  and  C18_25 
REMARK   10  A    between atoms: C18_25  and  C19_26 
REMARK   11  A    between atoms: C19_26  and  C20_27 
REMARK   12  A    between atoms: C20_27  and  N5_28 
ROOT
HETATM    1  C9  UNL     1      24.270  -0.076  53.742  1.00  0.00     0.139 A 
HETATM    2  N2  UNL     1      24.905  -0.727  54.706  1.00  0.00    -0.224 NA
HETATM    3  C10 UNL     1      24.357  -1.468  55.634  1.00  0.00     0.236 A 
HETATM    4  N3  UNL     1      23.030  -1.549  55.569  1.00  0.00    -0.234 NA
HETATM    5  C11 UNL     1      22.333  -0.896  54.596  1.00  0.00     0.114 A 
HETATM    6  S1  UNL     1      20.578  -0.780  54.218  1.00  0.00    -0.072 SA
HETATM    7  C12 UNL     1      20.760   0.278  52.816  1.00  0.00     0.010 A 
HETATM    8  C13 UNL     1      22.193   0.525  52.664  1.00  0.00    -0.025 A 
HETATM    9  C14 UNL     1      22.907  -0.119  53.622  1.00  0.00     0.053 A 
HETATM   10  C15 UNL     1      22.178   1.395  51.497  1.00  0.00     0.060 C 
HETATM   11  C16 UNL     1      21.295   2.624  51.757  1.00  0.00     0.131 C 
HETATM   12  N4  UNL     1      19.899   2.255  51.706  1.00  0.00    -0.347 N 
HETATM   13  C17 UNL     1      18.969   3.297  51.456  1.00  0.00     0.220 C 
HETATM   14  O2  UNL     1      19.767   4.261  51.354  1.00  0.00    -0.273 OA
HETATM   15  C23 UNL     1      19.683   0.837  51.929  1.00  0.00     0.172 C 
ENDROOT
BRANCH   1  16
HETATM   16  N1  UNL     1      25.217   0.566  52.929  1.00  0.00    -0.367 N 
HETATM   17  H16 UNL     1      25.344   0.035  52.078  1.00  0.00     0.161 HD
BRANCH  16  18
HETATM   18  C7  UNL     1      26.102   1.672  52.783  1.00  0.00     0.107 C 
BRANCH  18  19
HETATM   19  C6  UNL     1      26.623   1.950  51.426  1.00  0.00     0.031 C 
BRANCH  19  20
HETATM   20  C5  UNL     1      25.825   2.811  50.520  1.00  0.00     0.029 C 
BRANCH  20  21
HETATM   21  C4  UNL     1      26.680   3.563  49.539  1.00  0.00    -0.031 C 
HETATM   22  C3  UNL     1      26.584   4.869  49.309  1.00  0.00    -0.031 C 
BRANCH  22  23
HETATM   23  C2  UNL     1      27.258   5.862  48.437  1.00  0.00     0.022 C 
HETATM   24  C1  UNL     1      28.735   5.570  48.287  1.00  0.00     0.009 C 
ENDBRANCH  22  23
ENDBRANCH  20  21
ENDBRANCH  19  20
ENDBRANCH  18  19
BRANCH  18  25
HETATM   25  C8  UNL     1      27.315   1.566  53.735  1.00  0.00     0.189 C 
BRANCH  25  26
HETATM   26  O1  UNL     1      27.815   2.823  54.040  1.00  0.00    -0.399 OA
HETATM   27  H15 UNL     1      27.499   3.116  54.913  1.00  0.00     0.209 HD
ENDBRANCH  25  26
ENDBRANCH  18  25
ENDBRANCH  16  18
ENDBRANCH   1  16
BRANCH  13  28
HETATM   28  C18 UNL     1      17.530   3.007  51.392  1.00  0.00     0.105 C 
BRANCH  28  29
HETATM   29  C19 UNL     1      16.663   4.214  51.674  1.00  0.00     0.039 C 
BRANCH  29  30
HETATM   30  C20 UNL     1      15.213   3.820  51.664  1.00  0.00     0.271 C 
BRANCH  30  31
HETATM   31  N5  UNL     1      14.711   3.359  52.923  1.00  0.00     0.080 N 
HETATM   32  C21 UNL     1      14.271   2.001  52.954  1.00  0.00     0.309 C 
HETATM   33  C22 UNL     1      13.827   4.276  53.570  1.00  0.00     0.309 C 
ENDBRANCH  30  31
ENDBRANCH  29  30
ENDBRANCH  28  29
ENDBRANCH  13  28
TORSDOF 12
ENDMDL
MODEL 3
REMARK VINA RESULT:      -7.6      3.134      4.785
REMARK  12 active torsions:
REMARK  status: ('A' for Active; 'I' for Inactive)
REMARK    1  A    between atoms: C2_2  and  C3_3 
REMARK    2  A    between atoms: C4_4  and  C5_5 
REMARK    3  A    between atoms: C5_5  and  C6_6 
REMARK    4  A    between atoms: C6_6  and  C7_7 
REMARK    5  A    between atoms: C7_7  and  C8_8 
REMARK    6  A    between atoms: C7_7  and  N1_10 
REMARK    7  A    between atoms: C8_8  and  O1_9 
REMARK    8  A    between atoms: N1_10  and  C9_11 
REMARK       I    between atoms: N4_22  and  C17_23 
REMARK    9  A    between atoms: C17_23  and  C18_25 
REMARK   10  A    between atoms: C18_25  and  C19_26 
REMARK   11  A    between atoms: C19_26  and  C20_27 
REMARK   12  A    between atoms: C20_27  and  N5_28 
ROOT
HETATM    1  C9  UNL     1      24.589  -0.043  53.374  1.00  0.00     0.139 A 
HETATM    2  N2  UNL     1      25.317  -0.596  54.333  1.00  0.00    -0.224 NA
HETATM    3  C10 UNL     1      24.866  -1.234  55.381  1.00  0.00     0.236 A 
HETATM    4  N3  UNL     1      23.539  -1.314  55.454  1.00  0.00    -0.234 NA
HETATM    5  C11 UNL     1      22.748  -0.760  54.492  1.00  0.00     0.114 A 
HETATM    6  S1  UNL     1      20.964  -0.673  54.276  1.00  0.00    -0.072 SA
HETATM    7  C12 UNL     1      21.004   0.235  52.763  1.00  0.00     0.010 A 
HETATM    8  C13 UNL     1      22.414   0.457  52.448  1.00  0.00    -0.025 A 
HETATM    9  C14 UNL     1      23.221  -0.090  53.393  1.00  0.00     0.053 A 
HETATM   10  C15 UNL     1      22.281   1.203  51.204  1.00  0.00     0.060 C 
HETATM   11  C16 UNL     1      21.423   2.457  51.422  1.00  0.00     0.131 C 
HETATM   12  N4  UNL     1      20.031   2.094  51.546  1.00  0.00    -0.347 N 
HETATM   13  C17 UNL     1      19.075   3.109  51.282  1.00  0.00     0.220 C 
HETATM   14  O2  UNL     1      19.856   4.054  51.005  1.00  0.00    -0.273 OA
HETATM   15  C23 UNL     1      19.843   0.706  51.932  1.00  0.00     0.172 C 
ENDROOT
BRANCH   1  16
HETATM   16  N1  UNL     1      25.449   0.507  52.411  1.00  0.00    -0.367 N 
HETATM   17  H16 UNL     1      25.416  -0.055  51.571  1.00  0.00     0.161 HD
BRANCH  16  18
HETATM   18  C7  UNL     1      26.376   1.543  52.100  1.00  0.00     0.107 C 
BRANCH  18  19
HETATM   19  C6  UNL     1      26.884   2.359  53.225  1.00  0.00     0.031 C 
BRANCH  19  20
HETATM   20  C5  UNL     1      28.316   2.257  53.591  1.00  0.00     0.029 C 
BRANCH  20  21
HETATM   21  C4  UNL     1      28.680   0.898  54.120  1.00  0.00    -0.031 C 
HETATM   22  C3  UNL     1      29.507   0.054  53.510  1.00  0.00    -0.031 C 
BRANCH  22  23
HETATM   23  C2  UNL     1      30.043  -1.305  53.769  1.00  0.00     0.022 C 
HETATM   24  C1  UNL     1      29.126  -2.385  53.238  1.00  0.00     0.009 C 
ENDBRANCH  22  23
ENDBRANCH  20  21
ENDBRANCH  19  20
ENDBRANCH  18  19
BRANCH  18  25
HETATM   25  C8  UNL     1      25.818   2.512  51.034  1.00  0.00     0.189 C 
BRANCH  25  26
HETATM   26  O1  UNL     1      26.597   3.657  50.952  1.00  0.00    -0.399 OA
HETATM   27  H15 UNL     1      26.057   4.451  51.111  1.00  0.00     0.209 HD
ENDBRANCH  25  26
ENDBRANCH  18  25
ENDBRANCH  16  18
ENDBRANCH   1  16
BRANCH  13  28
HETATM   28  C18 UNL     1      17.638   2.823  51.389  1.00  0.00     0.105 C 
BRANCH  28  29
HETATM   29  C19 UNL     1      16.817   4.026  51.798  1.00  0.00     0.039 C 
BRANCH  29  30
HETATM   30  C20 UNL     1      15.352   3.705  51.701  1.00  0.00     0.271 C 
BRANCH  30  31
HETATM   31  N5  UNL     1      14.755   3.269  52.926  1.00  0.00     0.080 N 
HETATM   32  C21 UNL     1      14.321   1.909  52.953  1.00  0.00     0.309 C 
HETATM   33  C22 UNL     1      13.816   4.194  53.480  1.00  0.00     0.309 C 
ENDBRANCH  30  31
ENDBRANCH  29  30
ENDBRANCH  28  29
ENDBRANCH  13  28
TORSDOF 12
ENDMDL
MODEL 4
REMARK VINA RESULT:      -7.6      2.877      4.465
REMARK  12 active torsions:
REMARK  status: ('A' for Active; 'I' for Inactive)
REMARK    1  A    between atoms: C2_2  and  C3_3 
REMARK    2  A    between atoms: C4_4  and  C5_5 
REMARK    3  A    between atoms: C5_5  and  C6_6 
REMARK    4  A    between atoms: C6_6  and  C7_7 
REMARK    5  A    between atoms: C7_7  and  C8_8 
REMARK    6  A    between atoms: C7_7  and  N1_10 
REMARK    7  A    between atoms: C8_8  and  O1_9 
REMARK    8  A    between atoms: N1_10  and  C9_11 
REMARK       I    between atoms: N4_22  and  C17_23 
REMARK    9  A    between atoms: C17_23  and  C18_25 
REMARK   10  A    between atoms: C18_25  and  C19_26 
REMARK   11  A    between atoms: C19_26  and  C20_27 
REMARK   12  A    between atoms: C20_27  and  N5_28 
ROOT
HETATM    1  C9  UNL     1      24.633  -0.164  53.844  1.00  0.00     0.139 A 
HETATM    2  N2  UNL     1      25.260  -0.798  54.825  1.00  0.00    -0.224 NA
HETATM    3  C10 UNL     1      24.702  -1.487  55.786  1.00  0.00     0.236 A 
HETATM    4  N3  UNL     1      23.373  -1.531  55.739  1.00  0.00    -0.234 NA
HETATM    5  C11 UNL     1      22.684  -0.894  54.750  1.00  0.00     0.114 A 
HETATM    6  S1  UNL     1      20.928  -0.740  54.387  1.00  0.00    -0.072 SA
HETATM    7  C12 UNL     1      21.124   0.260  52.945  1.00  0.00     0.010 A 
HETATM    8  C13 UNL     1      22.562   0.460  52.769  1.00  0.00    -0.025 A 
HETATM    9  C14 UNL     1      23.268  -0.171  53.742  1.00  0.00     0.053 A 
HETATM   10  C15 UNL     1      22.558   1.286  51.570  1.00  0.00     0.060 C 
HETATM   11  C16 UNL     1      21.715   2.549  51.795  1.00  0.00     0.131 C 
HETATM   12  N4  UNL     1      20.308   2.221  51.773  1.00  0.00    -0.347 N 
HETATM   13  C17 UNL     1      19.405   3.280  51.495  1.00  0.00     0.220 C 
HETATM   14  O2  UNL     1      20.230   4.216  51.349  1.00  0.00    -0.273 OA
HETATM   15  C23 UNL     1      20.054   0.818  52.050  1.00  0.00     0.172 C 
ENDROOT
BRANCH   1  16
HETATM   16  N1  UNL     1      25.588   0.419  52.998  1.00  0.00    -0.367 N 
HETATM   17  H16 UNL     1      25.985  -0.292  52.399  1.00  0.00     0.161 HD
BRANCH  16  18
HETATM   18  C7  UNL     1      26.261   1.614  52.611  1.00  0.00     0.107 C 
BRANCH  18  19
HETATM   19  C6  UNL     1      26.457   1.842  51.161  1.00  0.00     0.031 C 
BRANCH  19  20
HETATM   20  C5  UNL     1      26.474   3.235  50.655  1.00  0.00     0.029 C 
BRANCH  20  21
HETATM   21  C4  UNL     1      25.100   3.741  50.316  1.00  0.00    -0.031 C 
HETATM   22  C3  UNL     1      24.439   3.427  49.207  1.00  0.00    -0.031 C 
BRANCH  22  23
HETATM   23  C2  UNL     1      23.120   3.752  48.609  1.00  0.00     0.022 C 
HETATM   24  C1  UNL     1      22.442   2.527  48.037  1.00  0.00     0.009 C 
ENDBRANCH  22  23
ENDBRANCH  20  21
ENDBRANCH  19  20
ENDBRANCH  18  19
BRANCH  18  25
HETATM   25  C8  UNL     1      27.640   1.745  53.295  1.00  0.00     0.189 C 
BRANCH  25  26
HETATM   26  O1  UNL     1      27.663   2.834  54.153  1.00  0.00    -0.399 OA
HETATM   27  H15 UNL     1      28.433   3.401  53.967  1.00  0.00     0.209 HD
ENDBRANCH  25  26
ENDBRANCH  18  25
ENDBRANCH  16  18
ENDBRANCH   1  16
BRANCH  13  28
HETATM   28  C18 UNL     1      17.958   3.031  51.458  1.00  0.00     0.105 C 
BRANCH  28  29
HETATM   29  C19 UNL     1      17.151   4.249  51.065  1.00  0.00     0.039 C 
BRANCH  29  30
HETATM   30  C20 UNL     1      15.686   3.981  51.266  1.00  0.00     0.271 C 
BRANCH  30  31
HETATM   31  N5  UNL     1      15.356   3.386  52.525  1.00  0.00     0.080 N 
HETATM   32  C21 UNL     1      14.636   2.154  52.458  1.00  0.00     0.309 C 
HETATM   33  C22 UNL     1      14.848   4.308  53.492  1.00  0.00     0.309 C 
ENDBRANCH  30  31
ENDBRANCH  29  30
ENDBRANCH  28  29
ENDBRANCH  13  28
TORSDOF 12
ENDMDL
MODEL 5
REMARK VINA RESULT:      -7.5      2.914      5.967
REMARK  12 active torsions:
REMARK  status: ('A' for Active; 'I' for Inactive)
REMARK    1  A    between atoms: C2_2  and  C3_3 
REMARK    2  A    between atoms: C4_4  and  C5_5 
REMARK    3  A    between atoms: C5_5  and  C6_6 
REMARK    4  A    between atoms: C6_6  and  C7_7 
REMARK    5  A    between atoms: C7_7  and  C8_8 
REMARK    6  A    between atoms: C7_7  and  N1_10 
REMARK    7  A    between atoms: C8_8  and  O1_9 
REMARK    8  A    between atoms: N1_10  and  C9_11 
REMARK       I    between atoms: N4_22  and  C17_23 
REMARK    9  A    between atoms: C17_23  and  C18_25 
REMARK   10  A    between atoms: C18_25  and  C19_26 
REMARK   11  A    between atoms: C19_26  and  C20_27 
REMARK   12  A    between atoms: C20_27  and  N5_28 
ROOT
HETATM    1  C9  UNL     1      25.856   3.206  50.727  1.00  0.00     0.139 A 
HETATM    2  N2  UNL     1      26.929   3.455  49.990  1.00  0.00    -0.224 NA
HETATM    3  C10 UNL     1      27.042   4.376  49.070  1.00  0.00     0.236 A 
HETATM    4  N3  UNL     1      25.951   5.116  48.886  1.00  0.00    -0.234 NA
HETATM    5  C11 UNL     1      24.823   4.897  49.619  1.00  0.00     0.114 A 
HETATM    6  S1  UNL     1      23.203   5.680  49.635  1.00  0.00    -0.072 SA
HETATM    7  C12 UNL     1      22.518   4.665  50.907  1.00  0.00     0.010 A 
HETATM    8  C13 UNL     1      23.568   3.727  51.301  1.00  0.00    -0.025 A 
HETATM    9  C14 UNL     1      24.703   3.930  50.585  1.00  0.00     0.053 A 
HETATM   10  C15 UNL     1      22.862   2.976  52.330  1.00  0.00     0.060 C 
HETATM   11  C16 UNL     1      21.577   2.362  51.757  1.00  0.00     0.131 C 
HETATM   12  N4  UNL     1      20.572   3.384  51.581  1.00  0.00    -0.347 N 
HETATM   13  C17 UNL     1      19.221   2.953  51.519  1.00  0.00     0.220 C 
HETATM   14  O2  UNL     1      19.397   1.717  51.656  1.00  0.00    -0.273 OA
HETATM   15  C23 UNL     1      21.136   4.719  51.495  1.00  0.00     0.172 C 
ENDROOT
BRANCH   1  16
HETATM   16  N1  UNL     1      26.152   2.168  51.625  1.00  0.00    -0.367 N 
HETATM   17  H16 UNL     1      25.297   1.836  52.049  1.00  0.00     0.161 HD
BRANCH  16  18
HETATM   18  C7  UNL     1      27.168   1.361  52.213  1.00  0.00     0.107 C 
BRANCH  18  19
HETATM   19  C6  UNL     1      26.786  -0.002  52.644  1.00  0.00     0.031 C 
BRANCH  19  20
HETATM   20  C5  UNL     1      26.491  -0.239  54.077  1.00  0.00     0.029 C 
BRANCH  20  21
HETATM   21  C4  UNL     1      25.049  -0.584  54.319  1.00  0.00    -0.031 C 
HETATM   22  C3  UNL     1      24.100  -0.531  53.388  1.00  0.00    -0.031 C 
BRANCH  22  23
HETATM   23  C2  UNL     1      22.642  -0.799  53.319  1.00  0.00     0.022 C 
HETATM   24  C1  UNL     1      22.006  -0.817  54.691  1.00  0.00     0.009 C 
ENDBRANCH  22  23
ENDBRANCH  20  21
ENDBRANCH  19  20
ENDBRANCH  18  19
BRANCH  18  25
HETATM   25  C8  UNL     1      27.834   2.064  53.418  1.00  0.00     0.189 C 
BRANCH  25  26
HETATM   26  O1  UNL     1      29.043   2.634  53.050  1.00  0.00    -0.399 OA
HETATM   27  H15 UNL     1      29.010   3.602  53.149  1.00  0.00     0.209 HD
ENDBRANCH  25  26
ENDBRANCH  18  25
ENDBRANCH  16  18
ENDBRANCH   1  16
BRANCH  13  28
HETATM   28  C18 UNL     1      18.138   3.929  51.338  1.00  0.00     0.105 C 
BRANCH  28  29
HETATM   29  C19 UNL     1      16.758   3.315  51.432  1.00  0.00     0.039 C 
BRANCH  29  30
HETATM   30  C20 UNL     1      15.910   4.104  52.390  1.00  0.00     0.271 C 
BRANCH  30  31
HETATM   31  N5  UNL     1      14.784   3.393  52.914  1.00  0.00     0.080 N 
HETATM   32  C21 UNL     1      14.778   1.984  52.679  1.00  0.00     0.309 C 
HETATM   33  C22 UNL     1      13.527   4.031  52.676  1.00  0.00     0.309 C 
ENDBRANCH  30  31
ENDBRANCH  29  30
ENDBRANCH  28  29
ENDBRANCH  13  28
TORSDOF 12
ENDMDL
MODEL 6
REMARK VINA RESULT:      -7.4      2.848      4.538
REMARK  12 active torsions:
REMARK  status: ('A' for Active; 'I' for Inactive)
REMARK    1  A    between atoms: C2_2  and  C3_3 
REMARK    2  A    between atoms: C4_4  and  C5_5 
REMARK    3  A    between atoms: C5_5  and  C6_6 
REMARK    4  A    between atoms: C6_6  and  C7_7 
REMARK    5  A    between atoms: C7_7  and  C8_8 
REMARK    6  A    between atoms: C7_7  and  N1_10 
REMARK    7  A    between atoms: C8_8  and  O1_9 
REMARK    8  A    between atoms: N1_10  and  C9_11 
REMARK       I    between atoms: N4_22  and  C17_23 
REMARK    9  A    between atoms: C17_23  and  C18_25 
REMARK   10  A    between atoms: C18_25  and  C19_26 
REMARK   11  A    between atoms: C19_26  and  C20_27 
REMARK   12  A    between atoms: C20_27  and  N5_28 
ROOT
HETATM    1  C9  UNL     1      24.630  -0.159  54.121  1.00  0.00     0.139 A 
HETATM    2  N2  UNL     1      25.008  -0.957  55.109  1.00  0.00    -0.224 NA
HETATM    3  C10 UNL     1      24.225  -1.686  55.862  1.00  0.00     0.236 A 
HETATM    4  N3  UNL     1      22.929  -1.588  55.576  1.00  0.00    -0.234 NA
HETATM    5  C11 UNL     1      22.492  -0.779  54.569  1.00  0.00     0.114 A 
HETATM    6  S1  UNL     1      20.854  -0.406  53.923  1.00  0.00    -0.072 SA
HETATM    7  C12 UNL     1      21.398   0.719  52.676  1.00  0.00     0.010 A 
HETATM    8  C13 UNL     1      22.855   0.788  52.784  1.00  0.00    -0.025 A 
HETATM    9  C14 UNL     1      23.312  -0.014  53.779  1.00  0.00     0.053 A 
HETATM   10  C15 UNL     1      23.143   1.736  51.717  1.00  0.00     0.060 C 
HETATM   11  C16 UNL     1      22.379   3.047  51.946  1.00  0.00     0.131 C 
HETATM   12  N4  UNL     1      20.979   2.869  51.635  1.00  0.00    -0.347 N 
HETATM   13  C17 UNL     1      20.234   4.040  51.337  1.00  0.00     0.220 C 
HETATM   14  O2  UNL     1      21.144   4.896  51.458  1.00  0.00    -0.273 OA
HETATM   15  C23 UNL     1      20.564   1.479  51.684  1.00  0.00     0.172 C 
ENDROOT
BRANCH   1  16
HETATM   16  N1  UNL     1      25.771   0.411  53.537  1.00  0.00    -0.367 N 
HETATM   17  H16 UNL     1      25.958  -0.041  52.653  1.00  0.00     0.161 HD
BRANCH  16  18
HETATM   18  C7  UNL     1      26.810   1.378  53.659  1.00  0.00     0.107 C 
BRANCH  18  19
HETATM   19  C6  UNL     1      27.160   2.154  52.447  1.00  0.00     0.031 C 
BRANCH  19  20
HETATM   20  C5  UNL     1      26.438   1.867  51.185  1.00  0.00     0.029 C 
BRANCH  20  21
HETATM   21  C4  UNL     1      26.636   2.941  50.152  1.00  0.00    -0.031 C 
HETATM   22  C3  UNL     1      25.852   4.006  50.019  1.00  0.00    -0.031 C 
BRANCH  22  23
HETATM   23  C2  UNL     1      25.790   5.194  49.132  1.00  0.00     0.022 C 
HETATM   24  C1  UNL     1      27.155   5.575  48.602  1.00  0.00     0.009 C 
ENDBRANCH  22  23
ENDBRANCH  20  21
ENDBRANCH  19  20
ENDBRANCH  18  19
BRANCH  18  25
HETATM   25  C8  UNL     1      28.114   0.755  54.207  1.00  0.00     0.189 C 
BRANCH  25  26
HETATM   26  O1  UNL     1      27.852  -0.437  54.865  1.00  0.00    -0.399 OA
HETATM   27  H15 UNL     1      28.437  -0.538  55.637  1.00  0.00     0.209 HD
ENDBRANCH  25  26
ENDBRANCH  18  25
ENDBRANCH  16  18
ENDBRANCH   1  16
BRANCH  13  28
HETATM   28  C18 UNL     1      18.804   3.947  51.013  1.00  0.00     0.105 C 
BRANCH  28  29
HETATM   29  C19 UNL     1      18.539   3.451  49.609  1.00  0.00     0.039 C 
BRANCH  29  30
HETATM   30  C20 UNL     1      19.244   4.329  48.613  1.00  0.00     0.271 C 
BRANCH  30  31
HETATM   31  N5  UNL     1      19.896   3.623  47.552  1.00  0.00     0.080 N 
HETATM   32  C21 UNL     1      19.111   3.407  46.379  1.00  0.00     0.309 C 
HETATM   33  C22 UNL     1      20.635   2.478  47.981  1.00  0.00     0.309 C 
ENDBRANCH  30  31
ENDBRANCH  29  30
ENDBRANCH  28  29
ENDBRANCH  13  28
TORSDOF 12
ENDMDL
MODEL 7
REMARK VINA RESULT:      -7.4      2.799      6.119
REMARK  12 active torsions:
REMARK  status: ('A' for Active; 'I' for Inactive)
REMARK    1  A    between atoms: C2_2  and  C3_3 
REMARK    2  A    between atoms: C4_4  and  C5_5 
REMARK    3  A    between atoms: C5_5  and  C6_6 
REMARK    4  A    between atoms: C6_6  and  C7_7 
REMARK    5  A    between atoms: C7_7  and  C8_8 
REMARK    6  A    between atoms: C7_7  and  N1_10 
REMARK    7  A    between atoms: C8_8  and  O1_9 
REMARK    8  A    between atoms: N1_10  and  C9_11 
REMARK       I    between atoms: N4_22  and  C17_23 
REMARK    9  A    between atoms: C17_23  and  C18_25 
REMARK   10  A    between atoms: C18_25  and  C19_26 
REMARK   11  A    between atoms: C19_26  and  C20_27 
REMARK   12  A    between atoms: C20_27  and  N5_28 
ROOT
HETATM    1  C9  UNL     1      26.088   3.463  50.823  1.00  0.00     0.139 A 
HETATM    2  N2  UNL     1      27.139   3.702  50.051  1.00  0.00    -0.224 NA
HETATM    3  C10 UNL     1      27.179   4.508  49.022  1.00  0.00     0.236 A 
HETATM    4  N3  UNL     1      26.032   5.129  48.758  1.00  0.00    -0.234 NA
HETATM    5  C11 UNL     1      24.924   4.915  49.523  1.00  0.00     0.114 A 
HETATM    6  S1  UNL     1      23.247   5.562  49.455  1.00  0.00    -0.072 SA
HETATM    7  C12 UNL     1      22.645   4.663  50.850  1.00  0.00     0.010 A 
HETATM    8  C13 UNL     1      23.766   3.868  51.349  1.00  0.00    -0.025 A 
HETATM    9  C14 UNL     1      24.882   4.070  50.603  1.00  0.00     0.053 A 
HETATM   10  C15 UNL     1      23.122   3.197  52.470  1.00  0.00     0.060 C 
HETATM   11  C16 UNL     1      21.890   2.417  51.990  1.00  0.00     0.131 C 
HETATM   12  N4  UNL     1      20.806   3.326  51.697  1.00  0.00    -0.347 N 
HETATM   13  C17 UNL     1      19.495   2.784  51.701  1.00  0.00     0.220 C 
HETATM   14  O2  UNL     1      19.769   1.593  51.989  1.00  0.00    -0.273 OA
HETATM   15  C23 UNL     1      21.262   4.680  51.439  1.00  0.00     0.172 C 
ENDROOT
BRANCH   1  16
HETATM   16  N1  UNL     1      26.467   2.573  51.840  1.00  0.00    -0.367 N 
HETATM   17  H16 UNL     1      26.095   2.894  52.723  1.00  0.00     0.161 HD
BRANCH  16  18
HETATM   18  C7  UNL     1      27.171   1.380  52.173  1.00  0.00     0.107 C 
BRANCH  18  19
HETATM   19  C6  UNL     1      26.375   0.139  52.312  1.00  0.00     0.031 C 
BRANCH  19  20
HETATM   20  C5  UNL     1      25.604  -0.076  53.560  1.00  0.00     0.029 C 
BRANCH  20  21
HETATM   21  C4  UNL     1      24.134  -0.250  53.305  1.00  0.00    -0.031 C 
HETATM   22  C3  UNL     1      23.284  -0.801  54.166  1.00  0.00    -0.031 C 
BRANCH  22  23
HETATM   23  C2  UNL     1      21.832  -1.103  54.205  1.00  0.00     0.022 C 
HETATM   24  C1  UNL     1      21.030   0.053  54.761  1.00  0.00     0.009 C 
ENDBRANCH  22  23
ENDBRANCH  20  21
ENDBRANCH  19  20
ENDBRANCH  18  19
BRANCH  18  25
HETATM   25  C8  UNL     1      28.006   1.547  53.462  1.00  0.00     0.189 C 
BRANCH  25  26
HETATM   26  O1  UNL     1      27.800   2.797  54.026  1.00  0.00    -0.399 OA
HETATM   27  H15 UNL     1      28.180   2.836  54.921  1.00  0.00     0.209 HD
ENDBRANCH  25  26
ENDBRANCH  18  25
ENDBRANCH  16  18
ENDBRANCH   1  16
BRANCH  13  28
HETATM   28  C18 UNL     1      18.337   3.640  51.409  1.00  0.00     0.105 C 
BRANCH  28  29
HETATM   29  C19 UNL     1      17.710   3.359  50.062  1.00  0.00     0.039 C 
BRANCH  29  30
HETATM   30  C20 UNL     1      18.523   4.003  48.973  1.00  0.00     0.271 C 
BRANCH  30  31
HETATM   31  N5  UNL     1      19.053   3.090  48.007  1.00  0.00     0.080 N 
HETATM   32  C21 UNL     1      20.465   2.879  48.064  1.00  0.00     0.309 C 
HETATM   33  C22 UNL     1      18.543   3.276  46.685  1.00  0.00     0.309 C 
ENDBRANCH  30  31
ENDBRANCH  29  30
ENDBRANCH  28  29
ENDBRANCH  13  28
TORSDOF 12
ENDMDL
MODEL 8
REMARK VINA RESULT:      -7.4      3.447      8.206
REMARK  12 active torsions:
REMARK  status: ('A' for Active; 'I' for Inactive)
REMARK    1  A    between atoms: C2_2  and  C3_3 
REMARK    2  A    between atoms: C4_4  and  C5_5 
REMARK    3  A    between atoms: C5_5  and  C6_6 
REMARK    4  A    between atoms: C6_6  and  C7_7 
REMARK    5  A    between atoms: C7_7  and  C8_8 
REMARK    6  A    between atoms: C7_7  and  N1_10 
REMARK    7  A    between atoms: C8_8  and  O1_9 
REMARK    8  A    between atoms: N1_10  and  C9_11 
REMARK       I    between atoms: N4_22  and  C17_23 
REMARK    9  A    between atoms: C17_23  and  C18_25 
REMARK   10  A    between atoms: C18_25  and  C19_26 
REMARK   11  A    between atoms: C19_26  and  C20_27 
REMARK   12  A    between atoms: C20_27  and  N5_28 
ROOT
HETATM    1  C9  UNL     1      24.497   0.119  53.200  1.00  0.00     0.139 A 
HETATM    2  N2  UNL     1      25.325  -0.839  53.590  1.00  0.00    -0.224 NA
HETATM    3  C10 UNL     1      26.585  -0.958  53.261  1.00  0.00     0.236 A 
HETATM    4  N3  UNL     1      27.042  -0.003  52.454  1.00  0.00    -0.234 NA
HETATM    5  C11 UNL     1      26.228   1.003  52.026  1.00  0.00     0.114 A 
HETATM    6  S1  UNL     1      26.498   2.422  50.954  1.00  0.00    -0.072 SA
HETATM    7  C12 UNL     1      24.850   3.048  51.056  1.00  0.00     0.010 A 
HETATM    8  C13 UNL     1      24.112   2.137  51.928  1.00  0.00    -0.025 A 
HETATM    9  C14 UNL     1      24.906   1.128  52.370  1.00  0.00     0.053 A 
HETATM   10  C15 UNL     1      22.802   2.774  51.909  1.00  0.00     0.060 C 
HETATM   11  C16 UNL     1      22.292   2.903  50.467  1.00  0.00     0.131 C 
HETATM   12  N4  UNL     1      22.999   3.960  49.781  1.00  0.00    -0.347 N 
HETATM   13  C17 UNL     1      22.364   4.525  48.644  1.00  0.00     0.220 C 
HETATM   14  O2  UNL     1      21.311   3.842  48.641  1.00  0.00    -0.273 OA
HETATM   15  C23 UNL     1      24.279   4.270  50.393  1.00  0.00     0.172 C 
ENDROOT
BRANCH   1  16
HETATM   16  N1  UNL     1      23.247  -0.089  53.803  1.00  0.00    -0.367 N 
HETATM   17  H16 UNL     1      23.176   0.482  54.634  1.00  0.00     0.161 HD
BRANCH  16  18
HETATM   18  C7  UNL     1      22.002  -0.778  53.748  1.00  0.00     0.107 C 
BRANCH  18  19
HETATM   19  C6  UNL     1      20.770   0.043  53.755  1.00  0.00     0.031 C 
BRANCH  19  20
HETATM   20  C5  UNL     1      20.126   0.371  52.461  1.00  0.00     0.029 C 
BRANCH  20  21
HETATM   21  C4  UNL     1      18.751  -0.223  52.336  1.00  0.00    -0.031 C 
HETATM   22  C3  UNL     1      18.331  -1.287  53.013  1.00  0.00    -0.031 C 
BRANCH  22  23
HETATM   23  C2  UNL     1      17.080  -2.081  53.105  1.00  0.00     0.022 C 
HETATM   24  C1  UNL     1      17.337  -3.480  53.621  1.00  0.00     0.009 C 
ENDBRANCH  22  23
ENDBRANCH  20  21
ENDBRANCH  19  20
ENDBRANCH  18  19
BRANCH  18  25
HETATM   25  C8  UNL     1      21.873  -1.823  54.880  1.00  0.00     0.189 C 
BRANCH  25  26
HETATM   26  O1  UNL     1      22.967  -1.766  55.730  1.00  0.00    -0.399 OA
HETATM   27  H15 UNL     1      23.495  -2.581  55.665  1.00  0.00     0.209 HD
ENDBRANCH  25  26
ENDBRANCH  18  25
ENDBRANCH  16  18
ENDBRANCH   1  16
BRANCH  13  28
HETATM   28  C18 UNL     1      23.018   5.602  47.888  1.00  0.00     0.105 C 
BRANCH  28  29
HETATM   29  C19 UNL     1      22.204   6.876  47.837  1.00  0.00     0.039 C 
BRANCH  29  30
HETATM   30  C20 UNL     1      21.985   7.402  49.228  1.00  0.00     0.271 C 
BRANCH  30  31
HETATM   31  N5  UNL     1      22.918   8.406  49.639  1.00  0.00     0.080 N 
HETATM   32  C21 UNL     1      23.518   9.162  48.586  1.00  0.00     0.309 C 
HETATM   33  C22 UNL     1      23.836   7.974  50.645  1.00  0.00     0.309 C 
ENDBRANCH  30  31
ENDBRANCH  29  30
ENDBRANCH  28  29
ENDBRANCH  13  28
TORSDOF 12
ENDMDL
MODEL 9
REMARK VINA RESULT:      -7.1      1.733      3.659
REMARK  12 active torsions:
REMARK  status: ('A' for Active; 'I' for Inactive)
REMARK    1  A    between atoms: C2_2  and  C3_3 
REMARK    2  A    between atoms: C4_4  and  C5_5 
REMARK    3  A    between atoms: C5_5  and  C6_6 
REMARK    4  A    between atoms: C6_6  and  C7_7 
REMARK    5  A    between atoms: C7_7  and  C8_8 
REMARK    6  A    between atoms: C7_7  and  N1_10 
REMARK    7  A    between atoms: C8_8  and  O1_9 
REMARK    8  A    between atoms: N1_10  and  C9_11 
REMARK       I    between atoms: N4_22  and  C17_23 
REMARK    9  A    between atoms: C17_23  and  C18_25 
REMARK   10  A    between atoms: C18_25  and  C19_26 
REMARK   11  A    between atoms: C19_26  and  C20_27 
REMARK   12  A    between atoms: C20_27  and  N5_28 
ROOT
HETATM    1  C9  UNL     1      26.744   2.170  52.014  1.00  0.00     0.139 A 
HETATM    2  N2  UNL     1      27.989   2.360  52.429  1.00  0.00    -0.224 NA
HETATM    3  C10 UNL     1      28.582   1.737  53.414  1.00  0.00     0.236 A 
HETATM    4  N3  UNL     1      27.828   0.832  54.035  1.00  0.00    -0.234 NA
HETATM    5  C11 UNL     1      26.543   0.603  53.644  1.00  0.00     0.114 A 
HETATM    6  S1  UNL     1      25.264  -0.512  54.242  1.00  0.00    -0.072 SA
HETATM    7  C12 UNL     1      24.029  -0.018  53.081  1.00  0.00     0.010 A 
HETATM    8  C13 UNL     1      24.636   1.014  52.241  1.00  0.00    -0.025 A 
HETATM    9  C14 UNL     1      25.919   1.256  52.611  1.00  0.00     0.053 A 
HETATM   10  C15 UNL     1      23.517   1.313  51.359  1.00  0.00     0.060 C 
HETATM   11  C16 UNL     1      22.288   1.733  52.178  1.00  0.00     0.131 C 
HETATM   12  N4  UNL     1      21.693   0.580  52.813  1.00  0.00    -0.347 N 
HETATM   13  C17 UNL     1      20.333   0.690  53.201  1.00  0.00     0.220 C 
HETATM   14  O2  UNL     1      20.107   1.863  52.814  1.00  0.00    -0.273 OA
HETATM   15  C23 UNL     1      22.621  -0.529  52.948  1.00  0.00     0.172 C 
ENDROOT
BRANCH   1  16
HETATM   16  N1  UNL     1      26.503   3.002  50.910  1.00  0.00    -0.367 N 
HETATM   17  H16 UNL     1      26.783   2.526  50.063  1.00  0.00     0.161 HD
BRANCH  16  18
HETATM   18  C7  UNL     1      26.024   4.264  50.456  1.00  0.00     0.107 C 
BRANCH  18  19
HETATM   19  C6  UNL     1      24.560   4.417  50.300  1.00  0.00     0.031 C 
BRANCH  19  20
HETATM   20  C5  UNL     1      23.992   4.488  48.933  1.00  0.00     0.029 C 
BRANCH  20  21
HETATM   21  C4  UNL     1      23.300   3.216  48.530  1.00  0.00    -0.031 C 
HETATM   22  C3  UNL     1      21.980   3.067  48.474  1.00  0.00    -0.031 C 
BRANCH  22  23
HETATM   23  C2  UNL     1      21.032   1.979  48.127  1.00  0.00     0.022 C 
HETATM   24  C1  UNL     1      20.207   1.549  49.320  1.00  0.00     0.009 C 
ENDBRANCH  22  23
ENDBRANCH  20  21
ENDBRANCH  19  20
ENDBRANCH  18  19
BRANCH  18  25
HETATM   25  C8  UNL     1      26.682   4.683  49.122  1.00  0.00     0.189 C 
BRANCH  25  26
HETATM   26  O1  UNL     1      28.044   4.887  49.286  1.00  0.00    -0.399 OA
HETATM   27  H15 UNL     1      28.523   4.039  49.256  1.00  0.00     0.209 HD
ENDBRANCH  25  26
ENDBRANCH  18  25
ENDBRANCH  16  18
ENDBRANCH   1  16
BRANCH  13  28
HETATM   28  C18 UNL     1      19.654  -0.436  53.856  1.00  0.00     0.105 C 
BRANCH  28  29
HETATM   29  C19 UNL     1      18.539  -1.028  53.023  1.00  0.00     0.039 C 
BRANCH  29  30
HETATM   30  C20 UNL     1      17.933   0.032  52.146  1.00  0.00     0.271 C 
BRANCH  30  31
HETATM   31  N5  UNL     1      16.730  -0.361  51.479  1.00  0.00     0.080 N 
HETATM   32  C21 UNL     1      16.039  -1.471  52.053  1.00  0.00     0.309 C 
HETATM   33  C22 UNL     1      16.842  -0.413  50.055  1.00  0.00     0.309 C 
ENDBRANCH  30  31
ENDBRANCH  29  30
ENDBRANCH  28  29
ENDBRANCH  13  28
TORSDOF 12
ENDMDL
