MODEL 1
REMARK VINA RESULT:      -8.3      0.000      0.000
REMARK  5 active torsions:
REMARK  status: ('A' for Active; 'I' for Inactive)
REMARK    1  A    between atoms: C2_2  and  C3_3 
REMARK    2  A    between atoms: C2_2  and  N2_14 
REMARK    3  A    between atoms: C3_3  and  C4_4 
REMARK    4  A    between atoms: N2_14  and  C12_15 
REMARK    5  A    between atoms: C13_16  and  O1_17 
ROOT
HETATM    1  C1  UNL     1      26.541   2.112  51.690  1.00  0.00     0.032 C 
HETATM    2  C2  UNL     1      26.013   2.269  53.096  1.00  0.00     0.078 C 
ENDROOT
BRANCH   2   3
HETATM    3  C3  UNL     1      24.525   2.174  53.160  1.00  0.00     0.041 C 
BRANCH   3   4
HETATM    4  C4  UNL     1      23.999   1.104  52.263  1.00  0.00     0.084 A 
HETATM    5  C5  UNL     1      23.025   1.576  51.248  1.00  0.00     0.086 A 
HETATM    6  S1  UNL     1      23.055   2.566  49.933  1.00  0.00    -0.065 SA
HETATM    7  N1  UNL     1      21.732   0.993  51.513  1.00  0.00    -0.350 N 
HETATM    8  C6  UNL     1      21.818   0.145  52.672  1.00  0.00     0.040 A 
HETATM    9  H8  UNL     1      20.782   1.043  51.074  1.00  0.00     0.166 HD
HETATM   10  C7  UNL     1      20.979  -0.662  53.411  1.00  0.00     0.030 A 
HETATM   11  C11 UNL     1      23.130   0.213  53.096  1.00  0.00    -0.021 A 
HETATM   12  C8  UNL     1      21.418  -1.365  54.513  1.00  0.00     0.002 A 
HETATM   13  C9  UNL     1      22.735  -1.278  54.914  1.00  0.00     0.001 A 
HETATM   14  C10 UNL     1      23.600  -0.479  54.196  1.00  0.00     0.010 A 
ENDBRANCH   3   4
ENDBRANCH   2   3
BRANCH   2  15
HETATM   15  N2  UNL     1      26.682   1.302  53.929  1.00  0.00    -0.387 N 
HETATM   16  H13 UNL     1      26.428   1.109  54.938  1.00  0.00     0.159 HD
BRANCH  15  17
HETATM   17  C12 UNL     1      27.753   0.401  53.733  1.00  0.00     0.039 A 
HETATM   18  C13 UNL     1      29.015   0.729  53.956  1.00  0.00     0.087 A 
HETATM   19  C14 UNL     1      30.070  -0.244  53.736  1.00  0.00     0.034 A 
HETATM   20  C15 UNL     1      29.662  -1.420  53.313  1.00  0.00    -0.024 A 
HETATM   21  C16 UNL     1      28.290  -1.938  53.018  1.00  0.00     0.033 A 
HETATM   22  C17 UNL     1      27.221  -0.920  53.252  1.00  0.00     0.063 A 
BRANCH  18  23
HETATM   23  O1  UNL     1      29.352   1.999  54.403  1.00  0.00    -0.359 OA
HETATM   24  H14 UNL     1      29.388   2.091  55.416  1.00  0.00     0.217 HD
ENDBRANCH  18  23
ENDBRANCH  15  17
ENDBRANCH   2  15
TORSDOF 5
ENDMDL
MODEL 2
REMARK VINA RESULT:      -8.1      1.538      1.831
REMARK  5 active torsions:
REMARK  status: ('A' for Active; 'I' for Inactive)
REMARK    1  A    between atoms: C2_2  and  C3_3 
REMARK    2  A    between atoms: C2_2  and  N2_14 
REMARK    3  A    between atoms: C3_3  and  C4_4 
REMARK    4  A    between atoms: N2_14  and  C12_15 
REMARK    5  A    between atoms: C13_16  and  O1_17 
ROOT
HETATM    1  C1  UNL     1      24.602   2.901  50.198  1.00  0.00     0.032 C 
HETATM    2  C2  UNL     1      25.015   3.284  51.598  1.00  0.00     0.078 C 
ENDROOT
BRANCH   2   3
HETATM    3  C3  UNL     1      24.021   2.853  52.624  1.00  0.00     0.041 C 
BRANCH   3   4
HETATM    4  C4  UNL     1      22.898   2.082  52.016  1.00  0.00     0.084 A 
HETATM    5  C5  UNL     1      21.624   2.835  51.905  1.00  0.00     0.086 A 
HETATM    6  S1  UNL     1      21.080   4.148  51.073  1.00  0.00    -0.065 SA
HETATM    7  N1  UNL     1      20.630   2.229  52.757  1.00  0.00    -0.350 N 
HETATM    8  C6  UNL     1      21.204   1.093  53.429  1.00  0.00     0.040 A 
HETATM    9  H8  UNL     1      19.626   2.418  52.992  1.00  0.00     0.166 HD
HETATM   10  C7  UNL     1      20.802   0.132  54.333  1.00  0.00     0.030 A 
HETATM   11  C11 UNL     1      22.510   1.014  52.993  1.00  0.00    -0.021 A 
HETATM   12  C8  UNL     1      21.654  -0.856  54.781  1.00  0.00     0.002 A 
HETATM   13  C9  UNL     1      22.956  -0.911  54.327  1.00  0.00     0.001 A 
HETATM   14  C10 UNL     1      23.388   0.037  53.423  1.00  0.00     0.010 A 
ENDBRANCH   3   4
ENDBRANCH   2   3
BRANCH   2  15
HETATM   15  N2  UNL     1      26.336   2.757  51.828  1.00  0.00    -0.387 N 
HETATM   16  H13 UNL     1      27.228   3.216  51.487  1.00  0.00     0.159 HD
BRANCH  15  17
HETATM   17  C12 UNL     1      26.844   1.615  52.488  1.00  0.00     0.039 A 
HETATM   18  C13 UNL     1      27.548   1.688  53.605  1.00  0.00     0.087 A 
HETATM   19  C14 UNL     1      28.042   0.476  54.235  1.00  0.00     0.034 A 
HETATM   20  C15 UNL     1      27.734  -0.640  53.610  1.00  0.00    -0.024 A 
HETATM   21  C16 UNL     1      26.956  -0.883  52.356  1.00  0.00     0.033 A 
HETATM   22  C17 UNL     1      26.459   0.378  51.726  1.00  0.00     0.063 A 
BRANCH  18  23
HETATM   23  O1  UNL     1      27.824   2.913  54.194  1.00  0.00    -0.359 OA
HETATM   24  H14 UNL     1      28.816   3.108  54.314  1.00  0.00     0.217 HD
ENDBRANCH  18  23
ENDBRANCH  15  17
ENDBRANCH   2  15
TORSDOF 5
ENDMDL
MODEL 3
REMARK VINA RESULT:      -7.6      1.884      3.213
REMARK  5 active torsions:
REMARK  status: ('A' for Active; 'I' for Inactive)
REMARK    1  A    between atoms: C2_2  and  C3_3 
REMARK    2  A    between atoms: C2_2  and  N2_14 
REMARK    3  A    between atoms: C3_3  and  C4_4 
REMARK    4  A    between atoms: N2_14  and  C12_15 
REMARK    5  A    between atoms: C13_16  and  O1_17 
ROOT
HETATM    1  C1  UNL     1      24.647   2.988  53.405  1.00  0.00     0.032 C 
HETATM    2  C2  UNL     1      25.010   1.532  53.246  1.00  0.00     0.078 C 
ENDROOT
BRANCH   2   3
HETATM    3  C3  UNL     1      24.012   0.781  52.429  1.00  0.00     0.041 C 
BRANCH   3   4
HETATM    4  C4  UNL     1      22.700   1.488  52.371  1.00  0.00     0.084 A 
HETATM    5  C5  UNL     1      21.550   0.693  52.867  1.00  0.00     0.086 A 
HETATM    6  S1  UNL     1      21.066   0.062  54.309  1.00  0.00    -0.065 SA
HETATM    7  N1  UNL     1      20.643   0.425  51.777  1.00  0.00    -0.350 N 
HETATM    8  C6  UNL     1      21.153   1.023  50.572  1.00  0.00     0.040 A 
HETATM    9  H8  UNL     1      19.733  -0.083  51.665  1.00  0.00     0.166 HD
HETATM   10  C7  UNL     1      20.780   1.130  49.248  1.00  0.00     0.030 A 
HETATM   11  C11 UNL     1      22.338   1.636  50.925  1.00  0.00    -0.021 A 
HETATM   12  C8  UNL     1      21.544   1.810  48.323  1.00  0.00     0.002 A 
HETATM   13  C9  UNL     1      22.724   2.414  48.704  1.00  0.00     0.001 A 
HETATM   14  C10 UNL     1      23.125   2.324  50.021  1.00  0.00     0.010 A 
ENDBRANCH   3   4
ENDBRANCH   2   3
BRANCH   2  15
HETATM   15  N2  UNL     1      26.348   1.466  52.715  1.00  0.00    -0.387 N 
HETATM   16  H13 UNL     1      26.669   1.981  51.847  1.00  0.00     0.159 HD
BRANCH  15  17
HETATM   17  C12 UNL     1      27.532   0.795  53.096  1.00  0.00     0.039 A 
HETATM   18  C13 UNL     1      28.556   1.414  53.659  1.00  0.00     0.087 A 
HETATM   19  C14 UNL     1      29.745   0.667  54.028  1.00  0.00     0.034 A 
HETATM   20  C15 UNL     1      29.699  -0.620  53.758  1.00  0.00    -0.024 A 
HETATM   21  C16 UNL     1      28.628  -1.456  53.134  1.00  0.00     0.033 A 
HETATM   22  C17 UNL     1      27.415  -0.666  52.763  1.00  0.00     0.063 A 
BRANCH  18  23
HETATM   23  O1  UNL     1      28.514   2.779  53.907  1.00  0.00    -0.359 OA
HETATM   24  H14 UNL     1      28.468   3.356  53.069  1.00  0.00     0.217 HD
ENDBRANCH  18  23
ENDBRANCH  15  17
ENDBRANCH   2  15
TORSDOF 5
ENDMDL
MODEL 4
REMARK VINA RESULT:      -7.5      2.693      4.852
REMARK  5 active torsions:
REMARK  status: ('A' for Active; 'I' for Inactive)
REMARK    1  A    between atoms: C2_2  and  C3_3 
REMARK    2  A    between atoms: C2_2  and  N2_14 
REMARK    3  A    between atoms: C3_3  and  C4_4 
REMARK    4  A    between atoms: N2_14  and  C12_15 
REMARK    5  A    between atoms: C13_16  and  O1_17 
ROOT
HETATM    1  C1  UNL     1      23.145   0.830  52.770  1.00  0.00     0.032 C 
HETATM    2  C2  UNL     1      24.361   1.144  51.933  1.00  0.00     0.078 C 
ENDROOT
BRANCH   2   3
HETATM    3  C3  UNL     1      24.099   2.215  50.926  1.00  0.00     0.041 C 
BRANCH   3   4
HETATM    4  C4  UNL     1      24.465   3.565  51.447  1.00  0.00     0.084 A 
HETATM    5  C5  UNL     1      23.340   4.531  51.496  1.00  0.00     0.086 A 
HETATM    6  S1  UNL     1      21.923   4.674  52.323  1.00  0.00    -0.065 SA
HETATM    7  N1  UNL     1      23.589   5.609  50.571  1.00  0.00    -0.350 N 
HETATM    8  C6  UNL     1      24.849   5.391  49.910  1.00  0.00     0.040 A 
HETATM    9  H8  UNL     1      23.085   6.481  50.280  1.00  0.00     0.166 HD
HETATM   10  C7  UNL     1      25.627   6.022  48.962  1.00  0.00     0.030 A 
HETATM   11  C11 UNL     1      25.348   4.211  50.424  1.00  0.00    -0.021 A 
HETATM   12  C8  UNL     1      26.837   5.508  48.545  1.00  0.00     0.002 A 
HETATM   13  C9  UNL     1      27.312   4.327  49.076  1.00  0.00     0.001 A 
HETATM   14  C10 UNL     1      26.557   3.671  50.027  1.00  0.00     0.010 A 
ENDBRANCH   3   4
ENDBRANCH   2   3
BRANCH   2  15
HETATM   15  N2  UNL     1      25.445   1.457  52.828  1.00  0.00    -0.387 N 
HETATM   16  H13 UNL     1      25.465   2.301  53.468  1.00  0.00     0.159 HD
BRANCH  15  17
HETATM   17  C12 UNL     1      26.684   0.847  53.132  1.00  0.00     0.039 A 
HETATM   18  C13 UNL     1      27.676   1.495  53.720  1.00  0.00     0.087 A 
HETATM   19  C14 UNL     1      28.925   0.811  54.005  1.00  0.00     0.034 A 
HETATM   20  C15 UNL     1      28.964  -0.451  53.636  1.00  0.00    -0.024 A 
HETATM   21  C16 UNL     1      27.940  -1.313  52.971  1.00  0.00     0.033 A 
HETATM   22  C17 UNL     1      26.664  -0.588  52.687  1.00  0.00     0.063 A 
BRANCH  18  23
HETATM   23  O1  UNL     1      27.543   2.830  54.075  1.00  0.00    -0.359 OA
HETATM   24  H14 UNL     1      28.080   3.102  54.895  1.00  0.00     0.217 HD
ENDBRANCH  18  23
ENDBRANCH  15  17
ENDBRANCH   2  15
TORSDOF 5
ENDMDL
MODEL 5
REMARK VINA RESULT:      -7.5      3.189      5.988
REMARK  5 active torsions:
REMARK  status: ('A' for Active; 'I' for Inactive)
REMARK    1  A    between atoms: C2_2  and  C3_3 
REMARK    2  A    between atoms: C2_2  and  N2_14 
REMARK    3  A    between atoms: C3_3  and  C4_4 
REMARK    4  A    between atoms: N2_14  and  C12_15 
REMARK    5  A    between atoms: C13_16  and  O1_17 
ROOT
HETATM    1  C1  UNL     1      22.481   2.658  52.122  1.00  0.00     0.032 C 
HETATM    2  C2  UNL     1      23.871   3.219  52.303  1.00  0.00     0.078 C 
ENDROOT
BRANCH   2   3
HETATM    3  C3  UNL     1      24.618   2.544  53.406  1.00  0.00     0.041 C 
BRANCH   3   4
HETATM    4  C4  UNL     1      25.262   1.280  52.944  1.00  0.00     0.084 A 
HETATM    5  C5  UNL     1      24.730   0.051  53.583  1.00  0.00     0.086 A 
HETATM    6  S1  UNL     1      23.300  -0.766  53.598  1.00  0.00    -0.065 SA
HETATM    7  N1  UNL     1      25.761  -0.560  54.387  1.00  0.00    -0.350 N 
HETATM    8  C6  UNL     1      26.964   0.225  54.299  1.00  0.00     0.040 A 
HETATM    9  H8  UNL     1      25.834  -1.409  54.997  1.00  0.00     0.166 HD
HETATM   10  C7  UNL     1      28.247   0.187  54.804  1.00  0.00     0.030 A 
HETATM   11  C11 UNL     1      26.667   1.282  53.463  1.00  0.00    -0.021 A 
HETATM   12  C8  UNL     1      29.186   1.148  54.495  1.00  0.00     0.002 A 
HETATM   13  C9  UNL     1      28.862   2.193  53.656  1.00  0.00     0.001 A 
HETATM   14  C10 UNL     1      27.587   2.260  53.134  1.00  0.00     0.010 A 
ENDBRANCH   3   4
ENDBRANCH   2   3
BRANCH   2  15
HETATM   15  N2  UNL     1      24.545   3.148  51.032  1.00  0.00    -0.387 N 
HETATM   16  H13 UNL     1      24.633   2.266  50.453  1.00  0.00     0.159 HD
BRANCH  15  17
HETATM   17  C12 UNL     1      25.227   4.083  50.221  1.00  0.00     0.039 A 
HETATM   18  C13 UNL     1      24.718   5.261  49.902  1.00  0.00     0.087 A 
HETATM   19  C14 UNL     1      25.471   6.178  49.064  1.00  0.00     0.034 A 
HETATM   20  C15 UNL     1      26.648   5.737  48.677  1.00  0.00    -0.024 A 
HETATM   21  C16 UNL     1      27.355   4.448  48.951  1.00  0.00     0.033 A 
HETATM   22  C17 UNL     1      26.561   3.521  49.814  1.00  0.00     0.063 A 
BRANCH  18  23
HETATM   23  O1  UNL     1      23.464   5.641  50.359  1.00  0.00    -0.359 OA
HETATM   24  H14 UNL     1      23.021   4.966  50.978  1.00  0.00     0.217 HD
ENDBRANCH  18  23
ENDBRANCH  15  17
ENDBRANCH   2  15
TORSDOF 5
ENDMDL
MODEL 6
REMARK VINA RESULT:      -7.4      2.274      3.061
REMARK  5 active torsions:
REMARK  status: ('A' for Active; 'I' for Inactive)
REMARK    1  A    between atoms: C2_2  and  C3_3 
REMARK    2  A    between atoms: C2_2  and  N2_14 
REMARK    3  A    between atoms: C3_3  and  C4_4 
REMARK    4  A    between atoms: N2_14  and  C12_15 
REMARK    5  A    between atoms: C13_16  and  O1_17 
ROOT
HETATM    1  C1  UNL     1      24.078   2.841  52.630  1.00  0.00     0.032 C 
HETATM    2  C2  UNL     1      24.381   1.422  53.044  1.00  0.00     0.078 C 
ENDROOT
BRANCH   2   3
HETATM    3  C3  UNL     1      23.262   0.485  52.730  1.00  0.00     0.041 C 
BRANCH   3   4
HETATM    4  C4  UNL     1      22.236   0.466  53.813  1.00  0.00     0.084 A 
HETATM    5  C5  UNL     1      22.187  -0.796  54.592  1.00  0.00     0.086 A 
HETATM    6  S1  UNL     1      23.186  -1.604  55.621  1.00  0.00    -0.065 SA
HETATM    7  N1  UNL     1      20.923  -1.453  54.366  1.00  0.00    -0.350 N 
HETATM    8  C6  UNL     1      20.128  -0.664  53.462  1.00  0.00     0.040 A 
HETATM    9  H8  UNL     1      20.467  -2.338  54.694  1.00  0.00     0.166 HD
HETATM   10  C7  UNL     1      18.883  -0.731  52.874  1.00  0.00     0.030 A 
HETATM   11  C11 UNL     1      20.892   0.442  53.151  1.00  0.00    -0.021 A 
HETATM   12  C8  UNL     1      18.420   0.249  52.021  1.00  0.00     0.002 A 
HETATM   13  C9  UNL     1      19.206   1.344  51.728  1.00  0.00     0.001 A 
HETATM   14  C10 UNL     1      20.457   1.440  52.300  1.00  0.00     0.010 A 
ENDBRANCH   3   4
ENDBRANCH   2   3
BRANCH   2  15
HETATM   15  N2  UNL     1      25.630   1.041  52.435  1.00  0.00    -0.387 N 
HETATM   16  H13 UNL     1      25.834   1.115  51.399  1.00  0.00     0.159 HD
BRANCH  15  17
HETATM   17  C12 UNL     1      26.848   0.514  52.922  1.00  0.00     0.039 A 
HETATM   18  C13 UNL     1      27.728   1.242  53.589  1.00  0.00     0.087 A 
HETATM   19  C14 UNL     1      28.961   0.640  54.064  1.00  0.00     0.034 A 
HETATM   20  C15 UNL     1      29.104  -0.635  53.775  1.00  0.00    -0.024 A 
HETATM   21  C16 UNL     1      28.211  -1.583  53.040  1.00  0.00     0.033 A 
HETATM   22  C17 UNL     1      26.949  -0.942  52.562  1.00  0.00     0.063 A 
BRANCH  18  23
HETATM   23  O1  UNL     1      27.490   2.585  53.848  1.00  0.00    -0.359 OA
HETATM   24  H14 UNL     1      26.560   2.784  54.210  1.00  0.00     0.217 HD
ENDBRANCH  18  23
ENDBRANCH  15  17
ENDBRANCH   2  15
TORSDOF 5
ENDMDL
MODEL 7
REMARK VINA RESULT:      -7.3      3.289      5.123
REMARK  5 active torsions:
REMARK  status: ('A' for Active; 'I' for Inactive)
REMARK    1  A    between atoms: C2_2  and  C3_3 
REMARK    2  A    between atoms: C2_2  and  N2_14 
REMARK    3  A    between atoms: C3_3  and  C4_4 
REMARK    4  A    between atoms: N2_14  and  C12_15 
REMARK    5  A    between atoms: C13_16  and  O1_17 
ROOT
HETATM    1  C1  UNL     1      23.066   3.100  49.037  1.00  0.00     0.032 C 
HETATM    2  C2  UNL     1      23.290   3.009  50.526  1.00  0.00     0.078 C 
ENDROOT
BRANCH   2   3
HETATM    3  C3  UNL     1      23.372   1.598  51.006  1.00  0.00     0.041 C 
BRANCH   3   4
HETATM    4  C4  UNL     1      23.904   1.517  52.397  1.00  0.00     0.084 A 
HETATM    5  C5  UNL     1      25.133   0.698  52.539  1.00  0.00     0.086 A 
HETATM    6  S1  UNL     1      26.694   0.785  52.023  1.00  0.00    -0.065 SA
HETATM    7  N1  UNL     1      24.848  -0.464  53.346  1.00  0.00    -0.350 N 
HETATM    8  C6  UNL     1      23.466  -0.440  53.748  1.00  0.00     0.040 A 
HETATM    9  H8  UNL     1      25.392  -1.290  53.693  1.00  0.00     0.166 HD
HETATM   10  C7  UNL     1      22.606  -1.219  54.492  1.00  0.00     0.030 A 
HETATM   11  C11 UNL     1      22.931   0.708  53.199  1.00  0.00    -0.021 A 
HETATM   12  C8  UNL     1      21.283  -0.877  54.682  1.00  0.00     0.002 A 
HETATM   13  C9  UNL     1      20.775   0.276  54.121  1.00  0.00     0.001 A 
HETATM   14  C10 UNL     1      21.610   1.077  53.370  1.00  0.00     0.010 A 
ENDBRANCH   3   4
ENDBRANCH   2   3
BRANCH   2  15
HETATM   15  N2  UNL     1      24.459   3.789  50.845  1.00  0.00    -0.387 N 
HETATM   16  H13 UNL     1      24.874   3.870  51.816  1.00  0.00     0.159 HD
BRANCH  15  17
HETATM   17  C12 UNL     1      25.340   4.602  50.096  1.00  0.00     0.039 A 
HETATM   18  C13 UNL     1      25.151   5.900  49.932  1.00  0.00     0.087 A 
HETATM   19  C14 UNL     1      26.095   6.680  49.150  1.00  0.00     0.034 A 
HETATM   20  C15 UNL     1      27.100   5.996  48.649  1.00  0.00    -0.024 A 
HETATM   21  C16 UNL     1      27.448   4.545  48.746  1.00  0.00     0.033 A 
HETATM   22  C17 UNL     1      26.464   3.763  49.554  1.00  0.00     0.063 A 
BRANCH  18  23
HETATM   23  O1  UNL     1      24.058   6.538  50.500  1.00  0.00    -0.359 OA
HETATM   24  H14 UNL     1      23.902   6.310  51.479  1.00  0.00     0.217 HD
ENDBRANCH  18  23
ENDBRANCH  15  17
ENDBRANCH   2  15
TORSDOF 5
ENDMDL
MODEL 8
REMARK VINA RESULT:      -7.1      3.107      5.879
REMARK  5 active torsions:
REMARK  status: ('A' for Active; 'I' for Inactive)
REMARK    1  A    between atoms: C2_2  and  C3_3 
REMARK    2  A    between atoms: C2_2  and  N2_14 
REMARK    3  A    between atoms: C3_3  and  C4_4 
REMARK    4  A    between atoms: N2_14  and  C12_15 
REMARK    5  A    between atoms: C13_16  and  O1_17 
ROOT
HETATM    1  C1  UNL     1      21.564   0.630  51.125  1.00  0.00     0.032 C 
HETATM    2  C2  UNL     1      21.818   1.853  51.972  1.00  0.00     0.078 C 
ENDROOT
BRANCH   2   3
HETATM    3  C3  UNL     1      22.962   1.666  52.914  1.00  0.00     0.041 C 
BRANCH   3   4
HETATM    4  C4  UNL     1      23.545   0.297  52.811  1.00  0.00     0.084 A 
HETATM    5  C5  UNL     1      23.298  -0.566  53.992  1.00  0.00     0.086 A 
HETATM    6  S1  UNL     1      21.989  -1.255  54.716  1.00  0.00    -0.065 SA
HETATM    7  N1  UNL     1      24.550  -0.860  54.646  1.00  0.00    -0.350 N 
HETATM    8  C6  UNL     1      25.624  -0.219  53.933  1.00  0.00     0.040 A 
HETATM    9  H8  UNL     1      24.848  -1.409  55.487  1.00  0.00     0.166 HD
HETATM   10  C7  UNL     1      26.995  -0.112  54.034  1.00  0.00     0.030 A 
HETATM   11  C11 UNL     1      25.035   0.442  52.875  1.00  0.00    -0.021 A 
HETATM   12  C8  UNL     1      27.743   0.616  53.132  1.00  0.00     0.002 A 
HETATM   13  C9  UNL     1      27.127   1.267  52.083  1.00  0.00     0.001 A 
HETATM   14  C10 UNL     1      25.757   1.179  51.955  1.00  0.00     0.010 A 
ENDBRANCH   3   4
ENDBRANCH   2   3
BRANCH   2  15
HETATM   15  N2  UNL     1      21.987   2.976  51.086  1.00  0.00    -0.387 N 
HETATM   16  H13 UNL     1      21.228   3.353  50.452  1.00  0.00     0.159 HD
BRANCH  15  17
HETATM   17  C12 UNL     1      23.060   3.847  50.787  1.00  0.00     0.039 A 
HETATM   18  C13 UNL     1      23.214   5.022  51.376  1.00  0.00     0.087 A 
HETATM   19  C14 UNL     1      24.338   5.871  51.024  1.00  0.00     0.034 A 
HETATM   20  C15 UNL     1      25.142   5.376  50.107  1.00  0.00    -0.024 A 
HETATM   21  C16 UNL     1      25.103   4.083  49.358  1.00  0.00     0.033 A 
HETATM   22  C17 UNL     1      23.938   3.226  49.737  1.00  0.00     0.063 A 
BRANCH  18  23
HETATM   23  O1  UNL     1      22.313   5.460  52.335  1.00  0.00    -0.359 OA
HETATM   24  H14 UNL     1      21.425   4.961  52.336  1.00  0.00     0.217 HD
ENDBRANCH  18  23
ENDBRANCH  15  17
ENDBRANCH   2  15
TORSDOF 5
ENDMDL
MODEL 9
REMARK VINA RESULT:      -7.1      2.920      6.808
REMARK  5 active torsions:
REMARK  status: ('A' for Active; 'I' for Inactive)
REMARK    1  A    between atoms: C2_2  and  C3_3 
REMARK    2  A    between atoms: C2_2  and  N2_14 
REMARK    3  A    between atoms: C3_3  and  C4_4 
REMARK    4  A    between atoms: N2_14  and  C12_15 
REMARK    5  A    between atoms: C13_16  and  O1_17 
ROOT
HETATM    1  C1  UNL     1      22.631  -0.879  54.602  1.00  0.00     0.032 C 
HETATM    2  C2  UNL     1      22.846   0.041  53.425  1.00  0.00     0.078 C 
ENDROOT
BRANCH   2   3
HETATM    3  C3  UNL     1      24.287   0.170  53.058  1.00  0.00     0.041 C 
BRANCH   3   4
HETATM    4  C4  UNL     1      24.861   1.467  53.521  1.00  0.00     0.084 A 
HETATM    5  C5  UNL     1      24.935   2.515  52.474  1.00  0.00     0.086 A 
HETATM    6  S1  UNL     1      23.864   3.390  51.580  1.00  0.00    -0.065 SA
HETATM    7  N1  UNL     1      26.317   2.823  52.196  1.00  0.00    -0.350 N 
HETATM    8  C6  UNL     1      27.165   2.013  53.031  1.00  0.00     0.040 A 
HETATM    9  H8  UNL     1      26.827   3.475  51.553  1.00  0.00     0.166 HD
HETATM   10  C7  UNL     1      28.515   1.833  53.245  1.00  0.00     0.030 A 
HETATM   11  C11 UNL     1      26.316   1.237  53.793  1.00  0.00    -0.021 A 
HETATM   12  C8  UNL     1      28.998   0.929  54.168  1.00  0.00     0.002 A 
HETATM   13  C9  UNL     1      28.127   0.166  54.916  1.00  0.00     0.001 A 
HETATM   14  C10 UNL     1      26.769   0.322  54.725  1.00  0.00     0.010 A 
ENDBRANCH   3   4
ENDBRANCH   2   3
BRANCH   2  15
HETATM   15  N2  UNL     1      22.021  -0.430  52.341  1.00  0.00    -0.387 N 
HETATM   16  H13 UNL     1      22.111  -1.387  51.897  1.00  0.00     0.159 HD
BRANCH  15  17
HETATM   17  C12 UNL     1      20.960   0.128  51.592  1.00  0.00     0.039 A 
HETATM   18  C13 UNL     1      19.708   0.131  52.018  1.00  0.00     0.087 A 
HETATM   19  C14 UNL     1      18.662   0.720  51.200  1.00  0.00     0.034 A 
HETATM   20  C15 UNL     1      19.069   1.221  50.054  1.00  0.00    -0.024 A 
HETATM   21  C16 UNL     1      20.430   1.293  49.440  1.00  0.00     0.033 A 
HETATM   22  C17 UNL     1      21.489   0.681  50.299  1.00  0.00     0.063 A 
BRANCH  18  23
HETATM   23  O1  UNL     1      19.372  -0.422  53.245  1.00  0.00    -0.359 OA
HETATM   24  H14 UNL     1      18.639  -1.126  53.202  1.00  0.00     0.217 HD
ENDBRANCH  18  23
ENDBRANCH  15  17
ENDBRANCH   2  15
TORSDOF 5
ENDMDL
