MODEL 1
REMARK VINA RESULT:      -6.8      0.000      0.000
REMARK  8 active torsions:
REMARK  status: ('A' for Active; 'I' for Inactive)
REMARK    1  A    between atoms: N1_2  and  C2_3 
REMARK    2  A    between atoms: C2_3  and  C3_4 
REMARK    3  A    between atoms: N2_9  and  C8_10 
REMARK    4  A    between atoms: C8_10  and  N3_11 
REMARK    5  A    between atoms: C8_10  and  C9_12 
REMARK    6  A    between atoms: C9_12  and  C10_13 
REMARK    7  A    between atoms: C10_13  and  C11_14 
REMARK    8  A    between atoms: C11_14  and  C12_15 
ROOT
HETATM    1  C8  UNL     1      26.805   2.234  52.324  1.00  0.00     0.149 C 
ENDROOT
BRANCH   1   2
HETATM    2  N2  UNL     1      25.734   1.377  52.675  1.00  0.00    -0.305 N 
HETATM    3  C3  UNL     1      25.786  -0.019  52.955  1.00  0.00     0.043 A 
HETATM    4  C4  UNL     1      24.655  -0.630  53.265  1.00  0.00     0.004 A 
HETATM    5  C5  UNL     1      23.325  -0.002  53.352  1.00  0.00     0.057 A 
HETATM    6  C6  UNL     1      23.356   1.439  53.049  1.00  0.00    -0.005 A 
HETATM    7  C7  UNL     1      24.471   2.071  52.737  1.00  0.00     0.095 A 
BRANCH   3   8
HETATM    8  C2  UNL     1      27.136  -0.632  52.862  1.00  0.00     0.326 C 
BRANCH   8   9
HETATM    9  N1  UNL     1      27.766  -0.702  54.178  1.00  0.00     0.084 N 
HETATM   10  C1  UNL     1      29.210  -0.593  53.962  1.00  0.00     0.307 C 
HETATM   11  H4  UNL     1      27.492   0.116  54.776  1.00  0.00     0.315 HD
ENDBRANCH   8   9
ENDBRANCH   3   8
ENDBRANCH   1   2
BRANCH   1  12
HETATM   12  N3  UNL     1      27.949   2.722  52.999  1.00  0.00    -0.379 N 
HETATM   13  H12 UNL     1      28.807   3.006  52.481  1.00  0.00     0.158 HD
HETATM   14  H13 UNL     1      28.418   2.969  53.876  1.00  0.00     0.158 HD
ENDBRANCH   1  12
BRANCH   1  15
HETATM   15  C9  UNL     1      26.715   2.680  51.079  1.00  0.00    -0.102 C 
BRANCH  15  16
HETATM   16  C10 UNL     1      26.437   2.954  49.813  1.00  0.00     0.080 C 
BRANCH  16  17
HETATM   17  C11 UNL     1      25.657   4.162  49.529  1.00  0.00     0.058 C 
BRANCH  17  18
HETATM   18  C12 UNL     1      26.584   5.240  49.091  1.00  0.00    -0.039 A 
HETATM   19  C13 UNL     1      27.834   4.978  48.524  1.00  0.00     0.010 A 
HETATM   20  C14 UNL     1      28.580   6.079  48.168  1.00  0.00     0.020 A 
HETATM   21  C15 UNL     1      28.170   7.387  48.337  1.00  0.00     0.116 A 
HETATM   22  N4  UNL     1      26.956   7.569  48.889  1.00  0.00    -0.273 NA
HETATM   23  C16 UNL     1      26.173   6.541  49.260  1.00  0.00     0.123 A 
ENDBRANCH  17  18
ENDBRANCH  16  17
ENDBRANCH  15  16
ENDBRANCH   1  15
TORSDOF 8
ENDMDL
MODEL 2
REMARK VINA RESULT:      -6.6      1.119      2.883
REMARK  8 active torsions:
REMARK  status: ('A' for Active; 'I' for Inactive)
REMARK    1  A    between atoms: N1_2  and  C2_3 
REMARK    2  A    between atoms: C2_3  and  C3_4 
REMARK    3  A    between atoms: N2_9  and  C8_10 
REMARK    4  A    between atoms: C8_10  and  N3_11 
REMARK    5  A    between atoms: C8_10  and  C9_12 
REMARK    6  A    between atoms: C9_12  and  C10_13 
REMARK    7  A    between atoms: C10_13  and  C11_14 
REMARK    8  A    between atoms: C11_14  and  C12_15 
ROOT
HETATM    1  C8  UNL     1      26.446   2.031  52.714  1.00  0.00     0.149 C 
ENDROOT
BRANCH   1   2
HETATM    2  N2  UNL     1      27.374   1.015  53.048  1.00  0.00    -0.305 N 
HETATM    3  C3  UNL     1      27.143  -0.388  53.137  1.00  0.00     0.043 A 
HETATM    4  C4  UNL     1      28.161  -1.163  53.468  1.00  0.00     0.004 A 
HETATM    5  C5  UNL     1      29.534  -0.715  53.759  1.00  0.00     0.057 A 
HETATM    6  C6  UNL     1      29.692   0.746  53.645  1.00  0.00    -0.005 A 
HETATM    7  C7  UNL     1      28.690   1.540  53.317  1.00  0.00     0.095 A 
BRANCH   3   8
HETATM    8  C2  UNL     1      25.752  -0.818  52.840  1.00  0.00     0.326 C 
BRANCH   8   9
HETATM    9  N1  UNL     1      24.931  -0.791  54.049  1.00  0.00     0.084 N 
HETATM   10  C1  UNL     1      23.574  -0.436  53.629  1.00  0.00     0.307 C 
HETATM   11  H4  UNL     1      24.868  -1.741  54.488  1.00  0.00     0.315 HD
ENDBRANCH   8   9
ENDBRANCH   3   8
ENDBRANCH   1   2
BRANCH   1  12
HETATM   12  N3  UNL     1      25.538   2.827  53.451  1.00  0.00    -0.379 N 
HETATM   13  H12 UNL     1      25.782   3.793  53.754  1.00  0.00     0.158 HD
HETATM   14  H13 UNL     1      24.623   2.938  53.900  1.00  0.00     0.158 HD
ENDBRANCH   1  12
BRANCH   1  15
HETATM   15  C9  UNL     1      26.422   2.294  51.415  1.00  0.00    -0.102 C 
BRANCH  15  16
HETATM   16  C10 UNL     1      26.496   2.784  50.187  1.00  0.00     0.080 C 
BRANCH  16  17
HETATM   17  C11 UNL     1      25.588   3.878  49.830  1.00  0.00     0.058 C 
BRANCH  17  18
HETATM   18  C12 UNL     1      26.393   5.024  49.327  1.00  0.00    -0.039 A 
HETATM   19  C13 UNL     1      27.600   4.858  48.643  1.00  0.00     0.010 A 
HETATM   20  C14 UNL     1      28.231   6.012  48.239  1.00  0.00     0.020 A 
HETATM   21  C15 UNL     1      27.748   7.287  48.466  1.00  0.00     0.116 A 
HETATM   22  N4  UNL     1      26.580   7.376  49.130  1.00  0.00    -0.273 NA
HETATM   23  C16 UNL     1      25.909   6.291  49.554  1.00  0.00     0.123 A 
ENDBRANCH  17  18
ENDBRANCH  16  17
ENDBRANCH  15  16
ENDBRANCH   1  15
TORSDOF 8
ENDMDL
MODEL 3
REMARK VINA RESULT:      -6.6      2.201      6.062
REMARK  8 active torsions:
REMARK  status: ('A' for Active; 'I' for Inactive)
REMARK    1  A    between atoms: N1_2  and  C2_3 
REMARK    2  A    between atoms: C2_3  and  C3_4 
REMARK    3  A    between atoms: N2_9  and  C8_10 
REMARK    4  A    between atoms: C8_10  and  N3_11 
REMARK    5  A    between atoms: C8_10  and  C9_12 
REMARK    6  A    between atoms: C9_12  and  C10_13 
REMARK    7  A    between atoms: C10_13  and  C11_14 
REMARK    8  A    between atoms: C11_14  and  C12_15 
ROOT
HETATM    1  C8  UNL     1      23.983   3.781  52.550  1.00  0.00     0.149 C 
ENDROOT
BRANCH   1   2
HETATM    2  N2  UNL     1      23.619   3.374  51.244  1.00  0.00    -0.305 N 
HETATM    3  C3  UNL     1      24.142   3.841  50.004  1.00  0.00     0.043 A 
HETATM    4  C4  UNL     1      23.655   3.320  48.891  1.00  0.00     0.004 A 
HETATM    5  C5  UNL     1      22.608   2.285  48.803  1.00  0.00     0.057 A 
HETATM    6  C6  UNL     1      22.122   1.855  50.126  1.00  0.00    -0.005 A 
HETATM    7  C7  UNL     1      22.592   2.362  51.249  1.00  0.00     0.095 A 
BRANCH   3   8
HETATM    8  C2  UNL     1      25.195   4.883  50.115  1.00  0.00     0.326 C 
BRANCH   8   9
HETATM    9  N1  UNL     1      26.523   4.275  50.171  1.00  0.00     0.084 N 
HETATM   10  C1  UNL     1      27.203   4.632  48.924  1.00  0.00     0.307 C 
HETATM   11  H4  UNL     1      27.096   4.682  50.950  1.00  0.00     0.315 HD
ENDBRANCH   8   9
ENDBRANCH   3   8
ENDBRANCH   1   2
BRANCH   1  12
HETATM   12  N3  UNL     1      23.751   4.939  53.330  1.00  0.00    -0.379 N 
HETATM   13  H12 UNL     1      23.054   5.658  53.043  1.00  0.00     0.158 HD
HETATM   14  H13 UNL     1      23.962   5.502  54.160  1.00  0.00     0.158 HD
ENDBRANCH   1  12
BRANCH   1  15
HETATM   15  C9  UNL     1      24.706   2.871  53.187  1.00  0.00    -0.102 C 
BRANCH  15  16
HETATM   16  C10 UNL     1      25.600   2.004  53.638  1.00  0.00     0.080 C 
BRANCH  16  17
HETATM   17  C11 UNL     1      25.794   0.764  52.881  1.00  0.00     0.058 C 
BRANCH  17  18
HETATM   18  C12 UNL     1      27.173   0.262  53.128  1.00  0.00    -0.039 A 
HETATM   19  C13 UNL     1      27.526  -1.082  52.980  1.00  0.00     0.010 A 
HETATM   20  C14 UNL     1      28.840  -1.395  53.244  1.00  0.00     0.020 A 
HETATM   21  C15 UNL     1      29.798  -0.478  53.634  1.00  0.00     0.116 A 
HETATM   22  N4  UNL     1      29.391   0.799  53.757  1.00  0.00    -0.273 NA
HETATM   23  C16 UNL     1      28.124   1.177  53.516  1.00  0.00     0.123 A 
ENDBRANCH  17  18
ENDBRANCH  16  17
ENDBRANCH  15  16
ENDBRANCH   1  15
TORSDOF 8
ENDMDL
MODEL 4
REMARK VINA RESULT:      -6.5      3.661      6.287
REMARK  8 active torsions:
REMARK  status: ('A' for Active; 'I' for Inactive)
REMARK    1  A    between atoms: N1_2  and  C2_3 
REMARK    2  A    between atoms: C2_3  and  C3_4 
REMARK    3  A    between atoms: N2_9  and  C8_10 
REMARK    4  A    between atoms: C8_10  and  N3_11 
REMARK    5  A    between atoms: C8_10  and  C9_12 
REMARK    6  A    between atoms: C9_12  and  C10_13 
REMARK    7  A    between atoms: C10_13  and  C11_14 
REMARK    8  A    between atoms: C11_14  and  C12_15 
ROOT
HETATM    1  C8  UNL     1      24.087   2.593  51.990  1.00  0.00     0.149 C 
ENDROOT
BRANCH   1   2
HETATM    2  N2  UNL     1      23.051   1.990  51.239  1.00  0.00    -0.305 N 
HETATM    3  C3  UNL     1      22.060   1.072  51.694  1.00  0.00     0.043 A 
HETATM    4  C4  UNL     1      21.178   0.628  50.815  1.00  0.00     0.004 A 
HETATM    5  C5  UNL     1      21.115   0.993  49.388  1.00  0.00     0.057 A 
HETATM    6  C6  UNL     1      22.170   1.944  48.998  1.00  0.00    -0.005 A 
HETATM    7  C7  UNL     1      23.062   2.400  49.856  1.00  0.00     0.095 A 
BRANCH   3   8
HETATM    8  C2  UNL     1      22.142   0.718  53.134  1.00  0.00     0.326 C 
BRANCH   8   9
HETATM    9  N1  UNL     1      22.478  -0.694  53.303  1.00  0.00     0.084 N 
HETATM   10  C1  UNL     1      21.911  -1.113  54.586  1.00  0.00     0.307 C 
HETATM   11  H4  UNL     1      22.019  -1.286  52.568  1.00  0.00     0.315 HD
ENDBRANCH   8   9
ENDBRANCH   3   8
ENDBRANCH   1   2
BRANCH   1  12
HETATM   12  N3  UNL     1      24.187   3.758  52.789  1.00  0.00    -0.379 N 
HETATM   13  H12 UNL     1      24.216   4.708  52.364  1.00  0.00     0.158 HD
HETATM   14  H13 UNL     1      24.255   4.190  53.716  1.00  0.00     0.158 HD
ENDBRANCH   1  12
BRANCH   1  15
HETATM   15  C9  UNL     1      25.223   1.913  51.933  1.00  0.00    -0.102 C 
BRANCH  15  16
HETATM   16  C10 UNL     1      26.278   1.128  52.095  1.00  0.00     0.080 C 
BRANCH  16  17
HETATM   17  C11 UNL     1      26.045  -0.248  52.543  1.00  0.00     0.058 C 
BRANCH  17  18
HETATM   18  C12 UNL     1      27.352  -0.864  52.898  1.00  0.00    -0.039 A 
HETATM   19  C13 UNL     1      28.454  -0.113  53.316  1.00  0.00     0.010 A 
HETATM   20  C14 UNL     1      29.595  -0.823  53.610  1.00  0.00     0.020 A 
HETATM   21  C15 UNL     1      29.705  -2.198  53.516  1.00  0.00     0.116 A 
HETATM   22  N4  UNL     1      28.607  -2.861  53.108  1.00  0.00    -0.273 NA
HETATM   23  C16 UNL     1      27.459  -2.232  52.804  1.00  0.00     0.123 A 
ENDBRANCH  17  18
ENDBRANCH  16  17
ENDBRANCH  15  16
ENDBRANCH   1  15
TORSDOF 8
ENDMDL
MODEL 5
REMARK VINA RESULT:      -6.5      3.758      6.369
REMARK  8 active torsions:
REMARK  status: ('A' for Active; 'I' for Inactive)
REMARK    1  A    between atoms: N1_2  and  C2_3 
REMARK    2  A    between atoms: C2_3  and  C3_4 
REMARK    3  A    between atoms: N2_9  and  C8_10 
REMARK    4  A    between atoms: C8_10  and  N3_11 
REMARK    5  A    between atoms: C8_10  and  C9_12 
REMARK    6  A    between atoms: C9_12  and  C10_13 
REMARK    7  A    between atoms: C10_13  and  C11_14 
REMARK    8  A    between atoms: C11_14  and  C12_15 
ROOT
HETATM    1  C8  UNL     1      22.825   1.355  51.430  1.00  0.00     0.149 C 
ENDROOT
BRANCH   1   2
HETATM    2  N2  UNL     1      22.265   0.745  52.579  1.00  0.00    -0.305 N 
HETATM    3  C3  UNL     1      21.063   1.097  53.258  1.00  0.00     0.043 A 
HETATM    4  C4  UNL     1      20.722   0.387  54.320  1.00  0.00     0.004 A 
HETATM    5  C5  UNL     1      21.473  -0.750  54.881  1.00  0.00     0.057 A 
HETATM    6  C6  UNL     1      22.700  -1.051  54.123  1.00  0.00    -0.005 A 
HETATM    7  C7  UNL     1      23.061  -0.357  53.061  1.00  0.00     0.095 A 
BRANCH   3   8
HETATM    8  C2  UNL     1      20.322   2.246  52.677  1.00  0.00     0.326 C 
BRANCH   8   9
HETATM    9  N1  UNL     1      19.203   1.782  51.860  1.00  0.00     0.084 N 
HETATM   10  C1  UNL     1      18.885   2.864  50.926  1.00  0.00     0.307 C 
HETATM   11  H4  UNL     1      19.475   0.955  51.275  1.00  0.00     0.315 HD
ENDBRANCH   8   9
ENDBRANCH   3   8
ENDBRANCH   1   2
BRANCH   1  12
HETATM   12  N3  UNL     1      22.451   1.438  50.068  1.00  0.00    -0.379 N 
HETATM   13  H12 UNL     1      22.870   0.811  49.349  1.00  0.00     0.158 HD
HETATM   14  H13 UNL     1      21.890   1.877  49.331  1.00  0.00     0.158 HD
ENDBRANCH   1  12
BRANCH   1  15
HETATM   15  C9  UNL     1      23.957   1.993  51.692  1.00  0.00    -0.102 C 
BRANCH  15  16
HETATM   16  C10 UNL     1      25.136   2.431  52.105  1.00  0.00     0.080 C 
BRANCH  16  17
HETATM   17  C11 UNL     1      25.386   2.469  53.549  1.00  0.00     0.058 C 
BRANCH  17  18
HETATM   18  C12 UNL     1      26.614   1.684  53.844  1.00  0.00    -0.039 A 
HETATM   19  C13 UNL     1      27.881   2.063  53.391  1.00  0.00     0.010 A 
HETATM   20  C14 UNL     1      28.923   1.235  53.744  1.00  0.00     0.020 A 
HETATM   21  C15 UNL     1      28.786   0.087  54.501  1.00  0.00     0.116 A 
HETATM   22  N4  UNL     1      27.540  -0.220  54.905  1.00  0.00    -0.273 NA
HETATM   23  C16 UNL     1      26.476   0.542  54.597  1.00  0.00     0.123 A 
ENDBRANCH  17  18
ENDBRANCH  16  17
ENDBRANCH  15  16
ENDBRANCH   1  15
TORSDOF 8
ENDMDL
MODEL 6
REMARK VINA RESULT:      -6.3      2.916      6.544
REMARK  8 active torsions:
REMARK  status: ('A' for Active; 'I' for Inactive)
REMARK    1  A    between atoms: N1_2  and  C2_3 
REMARK    2  A    between atoms: C2_3  and  C3_4 
REMARK    3  A    between atoms: N2_9  and  C8_10 
REMARK    4  A    between atoms: C8_10  and  N3_11 
REMARK    5  A    between atoms: C8_10  and  C9_12 
REMARK    6  A    between atoms: C9_12  and  C10_13 
REMARK    7  A    between atoms: C10_13  and  C11_14 
REMARK    8  A    between atoms: C11_14  and  C12_15 
ROOT
HETATM    1  C8  UNL     1      24.069   3.025  52.577  1.00  0.00     0.149 C 
ENDROOT
BRANCH   1   2
HETATM    2  N2  UNL     1      23.156   2.304  51.769  1.00  0.00    -0.305 N 
HETATM    3  C3  UNL     1      23.016   2.351  50.352  1.00  0.00     0.043 A 
HETATM    4  C4  UNL     1      22.090   1.588  49.797  1.00  0.00     0.004 A 
HETATM    5  C5  UNL     1      21.174   0.679  50.508  1.00  0.00     0.057 A 
HETATM    6  C6  UNL     1      21.382   0.687  51.966  1.00  0.00    -0.005 A 
HETATM    7  C7  UNL     1      22.299   1.440  52.543  1.00  0.00     0.095 A 
BRANCH   3   8
HETATM    8  C2  UNL     1      23.949   3.274  49.656  1.00  0.00     0.326 C 
BRANCH   8   9
HETATM    9  N1  UNL     1      23.218   4.368  49.019  1.00  0.00     0.084 N 
HETATM   10  C1  UNL     1      23.651   5.603  49.676  1.00  0.00     0.307 C 
HETATM   11  H4  UNL     1      23.478   4.462  48.007  1.00  0.00     0.315 HD
ENDBRANCH   8   9
ENDBRANCH   3   8
ENDBRANCH   1   2
BRANCH   1  12
HETATM   12  N3  UNL     1      24.116   4.343  53.089  1.00  0.00    -0.379 N 
HETATM   13  H12 UNL     1      24.822   4.626  53.801  1.00  0.00     0.158 HD
HETATM   14  H13 UNL     1      23.741   5.297  53.108  1.00  0.00     0.158 HD
ENDBRANCH   1  12
BRANCH   1  15
HETATM   15  C9  UNL     1      25.119   2.298  52.934  1.00  0.00    -0.102 C 
BRANCH  15  16
HETATM   16  C10 UNL     1      26.133   1.458  53.065  1.00  0.00     0.080 C 
BRANCH  16  17
HETATM   17  C11 UNL     1      25.920   0.060  52.676  1.00  0.00     0.058 C 
BRANCH  17  18
HETATM   18  C12 UNL     1      27.169  -0.706  52.936  1.00  0.00    -0.039 A 
HETATM   19  C13 UNL     1      28.326  -0.114  53.450  1.00  0.00     0.010 A 
HETATM   20  C14 UNL     1      29.402  -0.952  53.637  1.00  0.00     0.020 A 
HETATM   21  C15 UNL     1      29.398  -2.304  53.352  1.00  0.00     0.116 A 
HETATM   22  N4  UNL     1      28.252  -2.810  52.860  1.00  0.00    -0.273 NA
HETATM   23  C16 UNL     1      27.162  -2.051  52.652  1.00  0.00     0.123 A 
ENDBRANCH  17  18
ENDBRANCH  16  17
ENDBRANCH  15  16
ENDBRANCH   1  15
TORSDOF 8
ENDMDL
MODEL 7
REMARK VINA RESULT:      -6.3      4.777      8.265
REMARK  8 active torsions:
REMARK  status: ('A' for Active; 'I' for Inactive)
REMARK    1  A    between atoms: N1_2  and  C2_3 
REMARK    2  A    between atoms: C2_3  and  C3_4 
REMARK    3  A    between atoms: N2_9  and  C8_10 
REMARK    4  A    between atoms: C8_10  and  N3_11 
REMARK    5  A    between atoms: C8_10  and  C9_12 
REMARK    6  A    between atoms: C9_12  and  C10_13 
REMARK    7  A    between atoms: C10_13  and  C11_14 
REMARK    8  A    between atoms: C11_14  and  C12_15 
ROOT
HETATM    1  C8  UNL     1      31.934   5.746  49.205  1.00  0.00     0.149 C 
ENDROOT
BRANCH   1   2
HETATM    2  N2  UNL     1      32.668   5.028  48.231  1.00  0.00    -0.305 N 
HETATM    3  C3  UNL     1      34.079   5.014  48.033  1.00  0.00     0.043 A 
HETATM    4  C4  UNL     1      34.559   4.266  47.054  1.00  0.00     0.004 A 
HETATM    5  C5  UNL     1      33.768   3.431  46.132  1.00  0.00     0.057 A 
HETATM    6  C6  UNL     1      32.322   3.499  46.402  1.00  0.00    -0.005 A 
HETATM    7  C7  UNL     1      31.819   4.239  47.372  1.00  0.00     0.095 A 
BRANCH   3   8
HETATM    8  C2  UNL     1      34.857   5.862  48.972  1.00  0.00     0.326 C 
BRANCH   8   9
HETATM    9  N1  UNL     1      35.614   6.880  48.247  1.00  0.00     0.084 N 
HETATM   10  C1  UNL     1      34.878   8.138  48.394  1.00  0.00     0.307 C 
HETATM   11  H4  UNL     1      36.556   7.035  48.681  1.00  0.00     0.315 HD
ENDBRANCH   8   9
ENDBRANCH   3   8
ENDBRANCH   1   2
BRANCH   1  12
HETATM   12  N3  UNL     1      31.854   5.705  50.618  1.00  0.00    -0.379 N 
HETATM   13  H12 UNL     1      32.367   4.988  51.172  1.00  0.00     0.158 HD
HETATM   14  H13 UNL     1      31.485   6.091  51.493  1.00  0.00     0.158 HD
ENDBRANCH   1  12
BRANCH   1  15
HETATM   15  C9  UNL     1      31.141   6.665  48.673  1.00  0.00    -0.102 C 
BRANCH  15  16
HETATM   16  C10 UNL     1      30.177   7.498  48.311  1.00  0.00     0.080 C 
BRANCH  16  17
HETATM   17  C11 UNL     1      29.168   7.010  47.366  1.00  0.00     0.058 C 
BRANCH  17  18
HETATM   18  C12 UNL     1      28.082   6.338  48.129  1.00  0.00    -0.039 A 
HETATM   19  C13 UNL     1      28.102   4.973  48.430  1.00  0.00     0.010 A 
HETATM   20  C14 UNL     1      27.026   4.495  49.143  1.00  0.00     0.020 A 
HETATM   21  C15 UNL     1      25.962   5.269  49.563  1.00  0.00     0.116 A 
HETATM   22  N4  UNL     1      26.005   6.575  49.240  1.00  0.00    -0.273 NA
HETATM   23  C16 UNL     1      27.024   7.110  48.546  1.00  0.00     0.123 A 
ENDBRANCH  17  18
ENDBRANCH  16  17
ENDBRANCH  15  16
ENDBRANCH   1  15
TORSDOF 8
ENDMDL
MODEL 8
REMARK VINA RESULT:      -6.3      2.393      6.934
REMARK  8 active torsions:
REMARK  status: ('A' for Active; 'I' for Inactive)
REMARK    1  A    between atoms: N1_2  and  C2_3 
REMARK    2  A    between atoms: C2_3  and  C3_4 
REMARK    3  A    between atoms: N2_9  and  C8_10 
REMARK    4  A    between atoms: C8_10  and  N3_11 
REMARK    5  A    between atoms: C8_10  and  C9_12 
REMARK    6  A    between atoms: C9_12  and  C10_13 
REMARK    7  A    between atoms: C10_13  and  C11_14 
REMARK    8  A    between atoms: C11_14  and  C12_15 
ROOT
HETATM    1  C8  UNL     1      23.811   2.535  50.644  1.00  0.00     0.149 C 
ENDROOT
BRANCH   1   2
HETATM    2  N2  UNL     1      24.576   3.600  50.109  1.00  0.00    -0.305 N 
HETATM    3  C3  UNL     1      24.167   4.948  49.893  1.00  0.00     0.043 A 
HETATM    4  C4  UNL     1      25.050   5.786  49.377  1.00  0.00     0.004 A 
HETATM    5  C5  UNL     1      26.437   5.462  48.998  1.00  0.00     0.057 A 
HETATM    6  C6  UNL     1      26.781   4.052  49.254  1.00  0.00    -0.005 A 
HETATM    7  C7  UNL     1      25.917   3.197  49.766  1.00  0.00     0.095 A 
BRANCH   3   8
HETATM    8  C2  UNL     1      22.766   5.253  50.281  1.00  0.00     0.326 C 
BRANCH   8   9
HETATM    9  N1  UNL     1      22.725   6.325  51.273  1.00  0.00     0.084 N 
HETATM   10  C1  UNL     1      21.855   7.371  50.729  1.00  0.00     0.307 C 
HETATM   11  H4  UNL     1      22.277   6.001  52.165  1.00  0.00     0.315 HD
ENDBRANCH   8   9
ENDBRANCH   3   8
ENDBRANCH   1   2
BRANCH   1  12
HETATM   12  N3  UNL     1      22.725   1.758  50.175  1.00  0.00    -0.379 N 
HETATM   13  H12 UNL     1      22.757   1.282  49.249  1.00  0.00     0.158 HD
HETATM   14  H13 UNL     1      21.784   1.378  50.318  1.00  0.00     0.158 HD
ENDBRANCH   1  12
BRANCH   1  15
HETATM   15  C9  UNL     1      24.202   2.187  51.862  1.00  0.00    -0.102 C 
BRANCH  15  16
HETATM   16  C10 UNL     1      24.686   1.631  52.962  1.00  0.00     0.080 C 
BRANCH  16  17
HETATM   17  C11 UNL     1      25.647   2.403  53.755  1.00  0.00     0.058 C 
BRANCH  17  18
HETATM   18  C12 UNL     1      26.867   1.579  53.966  1.00  0.00    -0.039 A 
HETATM   19  C13 UNL     1      28.134   1.977  53.530  1.00  0.00     0.010 A 
HETATM   20  C14 UNL     1      29.167   1.107  53.798  1.00  0.00     0.020 A 
HETATM   21  C15 UNL     1      29.022  -0.099  54.455  1.00  0.00     0.116 A 
HETATM   22  N4  UNL     1      27.776  -0.422  54.849  1.00  0.00    -0.273 NA
HETATM   23  C16 UNL     1      26.720   0.378  54.621  1.00  0.00     0.123 A 
ENDBRANCH  17  18
ENDBRANCH  16  17
ENDBRANCH  15  16
ENDBRANCH   1  15
TORSDOF 8
ENDMDL
MODEL 9
REMARK VINA RESULT:      -6.2      2.130      2.996
REMARK  8 active torsions:
REMARK  status: ('A' for Active; 'I' for Inactive)
REMARK    1  A    between atoms: N1_2  and  C2_3 
REMARK    2  A    between atoms: C2_3  and  C3_4 
REMARK    3  A    between atoms: N2_9  and  C8_10 
REMARK    4  A    between atoms: C8_10  and  N3_11 
REMARK    5  A    between atoms: C8_10  and  C9_12 
REMARK    6  A    between atoms: C9_12  and  C10_13 
REMARK    7  A    between atoms: C10_13  and  C11_14 
REMARK    8  A    between atoms: C11_14  and  C12_15 
ROOT
HETATM    1  C8  UNL     1      25.878   2.070  52.994  1.00  0.00     0.149 C 
ENDROOT
BRANCH   1   2
HETATM    2  N2  UNL     1      24.732   1.262  53.187  1.00  0.00    -0.305 N 
HETATM    3  C3  UNL     1      24.661  -0.024  53.796  1.00  0.00     0.043 A 
HETATM    4  C4  UNL     1      23.477  -0.607  53.874  1.00  0.00     0.004 A 
HETATM    5  C5  UNL     1      22.202  -0.050  53.387  1.00  0.00     0.057 A 
HETATM    6  C6  UNL     1      22.360   1.280  52.773  1.00  0.00    -0.005 A 
HETATM    7  C7  UNL     1      23.531   1.880  52.683  1.00  0.00     0.095 A 
BRANCH   3   8
HETATM    8  C2  UNL     1      25.957  -0.567  54.279  1.00  0.00     0.326 C 
BRANCH   8   9
HETATM    9  N1  UNL     1      26.568  -1.427  53.268  1.00  0.00     0.084 N 
HETATM   10  C1  UNL     1      27.951  -0.973  53.108  1.00  0.00     0.307 C 
HETATM   11  H4  UNL     1      26.618  -2.423  53.595  1.00  0.00     0.315 HD
ENDBRANCH   8   9
ENDBRANCH   3   8
ENDBRANCH   1   2
BRANCH   1  12
HETATM   12  N3  UNL     1      26.839   2.653  53.854  1.00  0.00    -0.379 N 
HETATM   13  H12 UNL     1      27.764   2.976  53.499  1.00  0.00     0.158 HD
HETATM   14  H13 UNL     1      27.114   2.959  54.793  1.00  0.00     0.158 HD
ENDBRANCH   1  12
BRANCH   1  15
HETATM   15  C9  UNL     1      26.102   2.343  51.716  1.00  0.00    -0.102 C 
BRANCH  15  16
HETATM   16  C10 UNL     1      26.556   2.689  50.522  1.00  0.00     0.080 C 
BRANCH  16  17
HETATM   17  C11 UNL     1      26.151   3.993  49.986  1.00  0.00     0.058 C 
BRANCH  17  18
HETATM   18  C12 UNL     1      24.666   4.043  49.918  1.00  0.00    -0.039 A 
HETATM   19  C13 UNL     1      23.914   3.145  49.155  1.00  0.00     0.010 A 
HETATM   20  C14 UNL     1      22.548   3.317  49.191  1.00  0.00     0.020 A 
HETATM   21  C15 UNL     1      21.903   4.298  49.919  1.00  0.00     0.116 A 
HETATM   22  N4  UNL     1      22.687   5.129  50.632  1.00  0.00    -0.273 NA
HETATM   23  C16 UNL     1      24.027   5.020  50.643  1.00  0.00     0.123 A 
ENDBRANCH  17  18
ENDBRANCH  16  17
ENDBRANCH  15  16
ENDBRANCH   1  15
TORSDOF 8
ENDMDL
