MODEL 1
REMARK VINA RESULT:      -7.7      0.000      0.000
REMARK  5 active torsions:
REMARK  status: ('A' for Active; 'I' for Inactive)
REMARK    1  A    between atoms: N1_2  and  C2_3 
REMARK    2  A    between atoms: C2_3  and  N5_19 
REMARK    3  A    between atoms: C7_9  and  N3_10 
REMARK       I    between atoms: N3_10  and  C8_11 
REMARK    4  A    between atoms: C8_11  and  C9_13 
REMARK    5  A    between atoms: C16_25  and  O4_26 
ROOT
HETATM    1  C2  UNL     1      21.230   2.342  52.305  1.00  0.00     0.162 C 
HETATM    2  C3  UNL     1      21.533   1.206  52.836  1.00  0.00     0.217 A 
HETATM    3  N2  UNL     1      21.302   0.173  53.661  1.00  0.00     0.023 N 
HETATM    4  C4  UNL     1      20.457  -0.241  54.492  1.00  0.00     0.211 A 
HETATM    5  C5  UNL     1      21.495  -1.298  54.487  1.00  0.00     0.037 A 
HETATM    6  C6  UNL     1      22.461  -0.947  53.618  1.00  0.00     0.282 A 
HETATM    7  C7  UNL     1      22.634   0.258  52.730  1.00  0.00     0.350 A 
ENDROOT
BRANCH   1   8
HETATM    8  N1  UNL     1      20.077   3.119  52.582  1.00  0.00    -0.252 NA
HETATM    9  C1  UNL     1      19.054   3.154  51.796  1.00  0.00     0.151 C 
ENDBRANCH   1   8
BRANCH   1  10
HETATM   10  N5  UNL     1      21.974   3.052  51.335  1.00  0.00    -0.334 N 
HETATM   11  C12 UNL     1      22.167   2.705  49.937  1.00  0.00     0.155 C 
HETATM   12  C13 UNL     1      23.598   2.818  49.546  1.00  0.00     0.008 C 
HETATM   13  C14 UNL     1      24.537   3.384  50.310  1.00  0.00    -0.009 C 
HETATM   14 BR1  UNL     1      26.389   3.520  49.785  1.00  0.00    -0.056 Br
HETATM   15  C15 UNL     1      24.185   3.952  51.640  1.00  0.00     0.100 C 
HETATM   16  C16 UNL     1      22.683   4.262  51.588  1.00  0.00     0.228 C 
BRANCH  16  17
HETATM   17  O4  UNL     1      22.546   5.248  50.638  1.00  0.00    -0.371 OA
HETATM   18  C17 UNL     1      21.593   6.198  50.969  1.00  0.00     0.204 C 
ENDBRANCH  16  17
ENDBRANCH   1  10
BRANCH   7  19
HETATM   19  N3  UNL     1      23.909   0.820  53.164  1.00  0.00    -0.327 N 
HETATM   20  C8  UNL     1      25.270   0.697  52.868  1.00  0.00     0.244 C 
HETATM   21  O1  UNL     1      25.462  -0.144  51.955  1.00  0.00    -0.271 OA
HETATM   22  H7  UNL     1      23.617   1.507  53.925  1.00  0.00     0.165 HD
BRANCH  20  23
HETATM   23  C9  UNL     1      26.268   1.501  53.595  1.00  0.00     0.203 C 
HETATM   24  C10 UNL     1      26.973   0.733  54.694  1.00  0.00     0.215 C 
HETATM   25  O2  UNL     1      28.303   1.233  54.700  1.00  0.00    -0.301 OA
HETATM   26  C11 UNL     1      28.447   2.150  53.659  1.00  0.00     0.361 C 
HETATM   27  O3  UNL     1      29.436   2.953  53.593  1.00  0.00    -0.238 OA
HETATM   28  N4  UNL     1      27.328   1.990  52.764  1.00  0.00    -0.322 N 
HETATM   29  H11 UNL     1      27.530   2.253  51.774  1.00  0.00     0.165 HD
ENDBRANCH  20  23
ENDBRANCH   7  19
TORSDOF 5
ENDMDL
MODEL 2
REMARK VINA RESULT:      -7.4      1.497      2.096
REMARK  5 active torsions:
REMARK  status: ('A' for Active; 'I' for Inactive)
REMARK    1  A    between atoms: N1_2  and  C2_3 
REMARK    2  A    between atoms: C2_3  and  N5_19 
REMARK    3  A    between atoms: C7_9  and  N3_10 
REMARK       I    between atoms: N3_10  and  C8_11 
REMARK    4  A    between atoms: C8_11  and  C9_13 
REMARK    5  A    between atoms: C16_25  and  O4_26 
ROOT
HETATM    1  C2  UNL     1      21.262   2.597  52.304  1.00  0.00     0.162 C 
HETATM    2  C3  UNL     1      21.521   1.381  52.649  1.00  0.00     0.217 A 
HETATM    3  N2  UNL     1      21.221   0.221  53.252  1.00  0.00     0.023 N 
HETATM    4  C4  UNL     1      20.306  -0.325  53.916  1.00  0.00     0.211 A 
HETATM    5  C5  UNL     1      21.345  -1.377  53.815  1.00  0.00     0.037 A 
HETATM    6  C6  UNL     1      22.385  -0.888  53.114  1.00  0.00     0.282 A 
HETATM    7  C7  UNL     1      22.631   0.455  52.474  1.00  0.00     0.350 A 
ENDROOT
BRANCH   1   8
HETATM    8  N1  UNL     1      20.085   3.326  52.611  1.00  0.00    -0.252 NA
HETATM    9  C1  UNL     1      18.981   3.173  51.961  1.00  0.00     0.151 C 
ENDBRANCH   1   8
BRANCH   1  10
HETATM   10  N5  UNL     1      22.087   3.460  51.547  1.00  0.00    -0.334 N 
HETATM   11  C12 UNL     1      23.108   4.369  52.041  1.00  0.00     0.155 C 
HETATM   12  C13 UNL     1      22.979   5.714  51.418  1.00  0.00     0.008 C 
HETATM   13  C14 UNL     1      22.181   5.981  50.379  1.00  0.00    -0.009 C 
HETATM   14 BR1  UNL     1      22.027   7.733  49.586  1.00  0.00    -0.056 Br
HETATM   15  C15 UNL     1      21.354   4.905  49.768  1.00  0.00     0.100 C 
HETATM   16  C16 UNL     1      22.042   3.581  50.129  1.00  0.00     0.228 C 
BRANCH  16  17
HETATM   17  O4  UNL     1      23.260   3.615  49.489  1.00  0.00    -0.371 OA
HETATM   18  C17 UNL     1      23.282   2.882  48.314  1.00  0.00     0.204 C 
ENDBRANCH  16  17
ENDBRANCH   1  10
BRANCH   7  19
HETATM   19  N3  UNL     1      23.860   0.915  53.114  1.00  0.00    -0.327 N 
HETATM   20  C8  UNL     1      25.095   1.461  52.754  1.00  0.00     0.244 C 
HETATM   21  O1  UNL     1      25.183   1.604  51.509  1.00  0.00    -0.271 OA
HETATM   22  H7  UNL     1      23.664   0.745  54.149  1.00  0.00     0.165 HD
BRANCH  20  23
HETATM   23  C9  UNL     1      26.095   1.790  53.784  1.00  0.00     0.203 C 
HETATM   24  C10 UNL     1      26.510   0.598  54.622  1.00  0.00     0.215 C 
HETATM   25  O2  UNL     1      27.888   0.803  54.901  1.00  0.00    -0.301 OA
HETATM   26  C11 UNL     1      28.318   1.951  54.236  1.00  0.00     0.361 C 
HETATM   27  O3  UNL     1      29.421   2.528  54.519  1.00  0.00    -0.238 OA
HETATM   28  N4  UNL     1      27.324   2.297  53.250  1.00  0.00    -0.322 N 
HETATM   29  H11 UNL     1      27.702   2.809  52.423  1.00  0.00     0.165 HD
ENDBRANCH  20  23
ENDBRANCH   7  19
TORSDOF 5
ENDMDL
MODEL 3
REMARK VINA RESULT:      -6.9      2.756      4.980
REMARK  5 active torsions:
REMARK  status: ('A' for Active; 'I' for Inactive)
REMARK    1  A    between atoms: N1_2  and  C2_3 
REMARK    2  A    between atoms: C2_3  and  N5_19 
REMARK    3  A    between atoms: C7_9  and  N3_10 
REMARK       I    between atoms: N3_10  and  C8_11 
REMARK    4  A    between atoms: C8_11  and  C9_13 
REMARK    5  A    between atoms: C16_25  and  O4_26 
ROOT
HETATM    1  C2  UNL     1      21.060   3.278  49.736  1.00  0.00     0.162 C 
HETATM    2  C3  UNL     1      22.152   3.961  49.808  1.00  0.00     0.217 A 
HETATM    3  N2  UNL     1      23.075   4.796  49.307  1.00  0.00     0.023 N 
HETATM    4  C4  UNL     1      23.336   5.450  48.267  1.00  0.00     0.211 A 
HETATM    5  C5  UNL     1      24.464   5.764  49.175  1.00  0.00     0.037 A 
HETATM    6  C6  UNL     1      24.280   5.103  50.333  1.00  0.00     0.282 A 
HETATM    7  C7  UNL     1      23.196   4.168  50.804  1.00  0.00     0.350 A 
ENDROOT
BRANCH   1   8
HETATM    8  N1  UNL     1      20.183   3.210  48.624  1.00  0.00    -0.252 NA
HETATM    9  C1  UNL     1      20.596   2.972  47.424  1.00  0.00     0.151 C 
ENDBRANCH   1   8
BRANCH   1  10
HETATM   10  N5  UNL     1      20.502   2.459  50.743  1.00  0.00    -0.334 N 
HETATM   11  C12 UNL     1      20.117   2.846  52.089  1.00  0.00     0.155 C 
HETATM   12  C13 UNL     1      20.626   1.878  53.097  1.00  0.00     0.008 C 
HETATM   13  C14 UNL     1      21.163   0.693  52.787  1.00  0.00    -0.009 C 
HETATM   14 BR1  UNL     1      21.819  -0.550  54.108  1.00  0.00    -0.056 Br
HETATM   15  C15 UNL     1      21.280   0.268  51.366  1.00  0.00     0.100 C 
HETATM   16  C16 UNL     1      20.224   1.070  50.592  1.00  0.00     0.228 C 
BRANCH  16  17
HETATM   17  O4  UNL     1      19.011   0.643  51.079  1.00  0.00    -0.371 OA
HETATM   18  C17 UNL     1      18.027   0.564  50.107  1.00  0.00     0.204 C 
ENDBRANCH  16  17
ENDBRANCH   1  10
BRANCH   7  19
HETATM   19  N3  UNL     1      23.920   2.944  51.129  1.00  0.00    -0.327 N 
HETATM   20  C8  UNL     1      24.414   2.280  52.255  1.00  0.00     0.244 C 
HETATM   21  O1  UNL     1      24.161   2.918  53.307  1.00  0.00    -0.271 OA
HETATM   22  H7  UNL     1      24.072   2.500  50.171  1.00  0.00     0.165 HD
BRANCH  20  23
HETATM   23  C9  UNL     1      25.125   0.997  52.113  1.00  0.00     0.203 C 
HETATM   24  C10 UNL     1      26.556   1.153  51.642  1.00  0.00     0.215 C 
HETATM   25  O2  UNL     1      27.280   0.129  52.309  1.00  0.00    -0.301 OA
HETATM   26  C11 UNL     1      26.419  -0.542  53.178  1.00  0.00     0.361 C 
HETATM   27  O3  UNL     1      26.717  -1.669  53.696  1.00  0.00    -0.238 OA
HETATM   28  N4  UNL     1      25.231   0.260  53.337  1.00  0.00    -0.322 N 
HETATM   29  H11 UNL     1      24.745   0.129  54.252  1.00  0.00     0.165 HD
ENDBRANCH  20  23
ENDBRANCH   7  19
TORSDOF 5
ENDMDL
MODEL 4
REMARK VINA RESULT:      -6.7      2.551      6.083
REMARK  5 active torsions:
REMARK  status: ('A' for Active; 'I' for Inactive)
REMARK    1  A    between atoms: N1_2  and  C2_3 
REMARK    2  A    between atoms: C2_3  and  N5_19 
REMARK    3  A    between atoms: C7_9  and  N3_10 
REMARK       I    between atoms: N3_10  and  C8_11 
REMARK    4  A    between atoms: C8_11  and  C9_13 
REMARK    5  A    between atoms: C16_25  and  O4_26 
ROOT
HETATM    1  C2  UNL     1      24.044   0.848  52.711  1.00  0.00     0.162 C 
HETATM    2  C3  UNL     1      22.952   0.356  53.190  1.00  0.00     0.217 A 
HETATM    3  N2  UNL     1      22.211  -0.641  53.696  1.00  0.00     0.023 N 
HETATM    4  C4  UNL     1      22.292  -1.855  54.006  1.00  0.00     0.211 A 
HETATM    5  C5  UNL     1      20.895  -1.497  54.343  1.00  0.00     0.037 A 
HETATM    6  C6  UNL     1      20.699  -0.200  54.044  1.00  0.00     0.282 A 
HETATM    7  C7  UNL     1      21.609   0.852  53.463  1.00  0.00     0.350 A 
ENDROOT
BRANCH   1   8
HETATM    8  N1  UNL     1      25.263   0.151  52.513  1.00  0.00    -0.252 NA
HETATM    9  C1  UNL     1      25.864  -0.486  53.460  1.00  0.00     0.151 C 
ENDBRANCH   1   8
BRANCH   1  10
HETATM   10  N5  UNL     1      24.263   2.178  52.287  1.00  0.00    -0.334 N 
HETATM   11  C12 UNL     1      24.168   3.390  53.083  1.00  0.00     0.155 C 
HETATM   12  C13 UNL     1      23.385   4.440  52.378  1.00  0.00     0.008 C 
HETATM   13  C14 UNL     1      23.020   4.360  51.094  1.00  0.00    -0.009 C 
HETATM   14 BR1  UNL     1      22.003   5.733  50.197  1.00  0.00    -0.056 Br
HETATM   15  C15 UNL     1      23.393   3.175  50.276  1.00  0.00     0.100 C 
HETATM   16  C16 UNL     1      24.619   2.554  50.960  1.00  0.00     0.228 C 
BRANCH  16  17
HETATM   17  O4  UNL     1      25.616   3.496  50.849  1.00  0.00    -0.371 OA
HETATM   18  C17 UNL     1      26.419   3.315  49.733  1.00  0.00     0.204 C 
ENDBRANCH  16  17
ENDBRANCH   1  10
BRANCH   7  19
HETATM   19  N3  UNL     1      20.907   1.280  52.257  1.00  0.00    -0.327 N 
HETATM   20  C8  UNL     1      20.143   2.362  51.810  1.00  0.00     0.244 C 
HETATM   21  O1  UNL     1      20.019   3.233  52.708  1.00  0.00    -0.271 OA
HETATM   22  H7  UNL     1      21.084   0.473  51.583  1.00  0.00     0.165 HD
BRANCH  20  23
HETATM   23  C9  UNL     1      19.599   2.377  50.441  1.00  0.00     0.203 C 
HETATM   24  C10 UNL     1      18.580   1.285  50.187  1.00  0.00     0.215 C 
HETATM   25  O2  UNL     1      17.629   1.865  49.306  1.00  0.00    -0.301 OA
HETATM   26  C11 UNL     1      17.960   3.203  49.098  1.00  0.00     0.361 C 
HETATM   27  O3  UNL     1      17.452   3.891  48.150  1.00  0.00    -0.238 OA
HETATM   28  N4  UNL     1      18.913   3.590  50.109  1.00  0.00    -0.322 N 
HETATM   29  H11 UNL     1      18.890   4.605  50.353  1.00  0.00     0.165 HD
ENDBRANCH  20  23
ENDBRANCH   7  19
TORSDOF 5
ENDMDL
MODEL 5
REMARK VINA RESULT:      -6.7      3.186      5.131
REMARK  5 active torsions:
REMARK  status: ('A' for Active; 'I' for Inactive)
REMARK    1  A    between atoms: N1_2  and  C2_3 
REMARK    2  A    between atoms: C2_3  and  N5_19 
REMARK    3  A    between atoms: C7_9  and  N3_10 
REMARK       I    between atoms: N3_10  and  C8_11 
REMARK    4  A    between atoms: C8_11  and  C9_13 
REMARK    5  A    between atoms: C16_25  and  O4_26 
ROOT
HETATM    1  C2  UNL     1      22.319   0.798  53.077  1.00  0.00     0.162 C 
HETATM    2  C3  UNL     1      23.586   0.618  52.915  1.00  0.00     0.217 A 
HETATM    3  N2  UNL     1      24.790   0.174  53.308  1.00  0.00     0.023 N 
HETATM    4  C4  UNL     1      25.345  -0.423  54.263  1.00  0.00     0.211 A 
HETATM    5  C5  UNL     1      26.453  -0.168  53.314  1.00  0.00     0.037 A 
HETATM    6  C6  UNL     1      25.960   0.478  52.241  1.00  0.00     0.282 A 
HETATM    7  C7  UNL     1      24.570   0.945  51.892  1.00  0.00     0.350 A 
ENDROOT
BRANCH   1   8
HETATM    8  N1  UNL     1      21.550   0.398  54.198  1.00  0.00    -0.252 NA
HETATM    9  C1  UNL     1      21.274  -0.837  54.451  1.00  0.00     0.151 C 
ENDBRANCH   1   8
BRANCH   1  10
HETATM   10  N5  UNL     1      21.428   1.423  52.176  1.00  0.00    -0.334 N 
HETATM   11  C12 UNL     1      20.886   2.769  52.255  1.00  0.00     0.155 C 
HETATM   12  C13 UNL     1      19.417   2.775  52.020  1.00  0.00     0.008 C 
HETATM   13  C14 UNL     1      18.730   1.720  51.569  1.00  0.00    -0.009 C 
HETATM   14 BR1  UNL     1      16.825   1.747  51.271  1.00  0.00    -0.056 Br
HETATM   15  C15 UNL     1      19.428   0.441  51.265  1.00  0.00     0.100 C 
HETATM   16  C16 UNL     1      20.896   0.806  51.007  1.00  0.00     0.228 C 
BRANCH  16  17
HETATM   17  O4  UNL     1      20.886   1.581  49.870  1.00  0.00    -0.371 OA
HETATM   18  C17 UNL     1      21.421   0.939  48.765  1.00  0.00     0.204 C 
ENDBRANCH  16  17
ENDBRANCH   1  10
BRANCH   7  19
HETATM   19  N3  UNL     1      24.733   2.383  51.701  1.00  0.00    -0.327 N 
HETATM   20  C8  UNL     1      24.491   3.349  50.721  1.00  0.00     0.244 C 
HETATM   21  O1  UNL     1      23.977   2.838  49.694  1.00  0.00    -0.271 OA
HETATM   22  H7  UNL     1      25.169   2.694  52.623  1.00  0.00     0.165 HD
BRANCH  20  23
HETATM   23  C9  UNL     1      24.832   4.762  50.964  1.00  0.00     0.203 C 
HETATM   24  C10 UNL     1      25.662   5.379  49.857  1.00  0.00     0.215 C 
HETATM   25  O2  UNL     1      25.222   6.727  49.773  1.00  0.00    -0.301 OA
HETATM   26  C11 UNL     1      24.167   6.916  50.666  1.00  0.00     0.361 C 
HETATM   27  O3  UNL     1      23.761   8.078  51.003  1.00  0.00    -0.238 OA
HETATM   28  N4  UNL     1      23.689   5.618  51.075  1.00  0.00    -0.322 N 
HETATM   29  H11 UNL     1      22.681   5.598  51.344  1.00  0.00     0.165 HD
ENDBRANCH  20  23
ENDBRANCH   7  19
TORSDOF 5
ENDMDL
MODEL 6
REMARK VINA RESULT:      -6.4      2.963      5.669
REMARK  5 active torsions:
REMARK  status: ('A' for Active; 'I' for Inactive)
REMARK    1  A    between atoms: N1_2  and  C2_3 
REMARK    2  A    between atoms: C2_3  and  N5_19 
REMARK    3  A    between atoms: C7_9  and  N3_10 
REMARK       I    between atoms: N3_10  and  C8_11 
REMARK    4  A    between atoms: C8_11  and  C9_13 
REMARK    5  A    between atoms: C16_25  and  O4_26 
ROOT
HETATM    1  C2  UNL     1      22.718   0.622  53.126  1.00  0.00     0.162 C 
HETATM    2  C3  UNL     1      23.895   1.099  52.892  1.00  0.00     0.217 A 
HETATM    3  N2  UNL     1      25.183   1.306  53.202  1.00  0.00     0.023 N 
HETATM    4  C4  UNL     1      26.024   1.048  54.099  1.00  0.00     0.211 A 
HETATM    5  C5  UNL     1      26.794   1.835  53.108  1.00  0.00     0.037 A 
HETATM    6  C6  UNL     1      25.975   2.167  52.093  1.00  0.00     0.282 A 
HETATM    7  C7  UNL     1      24.516   1.888  51.837  1.00  0.00     0.350 A 
ENDROOT
BRANCH   1   8
HETATM    8  N1  UNL     1      22.325  -0.124  54.265  1.00  0.00    -0.252 NA
HETATM    9  C1  UNL     1      22.959  -1.177  54.662  1.00  0.00     0.151 C 
ENDBRANCH   1   8
BRANCH   1  10
HETATM   10  N5  UNL     1      21.576   0.736  52.301  1.00  0.00    -0.334 N 
HETATM   11  C12 UNL     1      21.480   0.467  50.877  1.00  0.00     0.155 C 
HETATM   12  C13 UNL     1      20.768   1.564  50.167  1.00  0.00     0.008 C 
HETATM   13  C14 UNL     1      20.105   2.545  50.786  1.00  0.00    -0.009 C 
HETATM   14 BR1  UNL     1      19.188   3.959  49.847  1.00  0.00    -0.056 Br
HETATM   15  C15 UNL     1      20.042   2.591  52.272  1.00  0.00     0.100 C 
HETATM   16  C16 UNL     1      20.292   1.156  52.755  1.00  0.00     0.228 C 
BRANCH  16  17
HETATM   17  O4  UNL     1      19.223   0.423  52.292  1.00  0.00    -0.371 OA
HETATM   18  C17 UNL     1      18.875  -0.625  53.129  1.00  0.00     0.204 C 
ENDBRANCH  16  17
ENDBRANCH   1  10
BRANCH   7  19
HETATM   19  N3  UNL     1      23.933   3.219  51.706  1.00  0.00    -0.327 N 
HETATM   20  C8  UNL     1      23.513   4.091  50.697  1.00  0.00     0.244 C 
HETATM   21  O1  UNL     1      23.683   3.585  49.560  1.00  0.00    -0.271 OA
HETATM   22  H7  UNL     1      23.840   3.536  52.720  1.00  0.00     0.165 HD
BRANCH  20  23
HETATM   23  C9  UNL     1      22.957   5.412  51.036  1.00  0.00     0.203 C 
HETATM   24  C10 UNL     1      24.016   6.442  51.372  1.00  0.00     0.215 C 
HETATM   25  O2  UNL     1      23.511   7.670  50.868  1.00  0.00    -0.301 OA
HETATM   26  C11 UNL     1      22.308   7.427  50.205  1.00  0.00     0.361 C 
HETATM   27  O3  UNL     1      21.500   8.366  49.896  1.00  0.00    -0.238 OA
HETATM   28  N4  UNL     1      22.203   6.008  49.973  1.00  0.00    -0.322 N 
HETATM   29  H11 UNL     1      21.635   5.752  49.136  1.00  0.00     0.165 HD
ENDBRANCH  20  23
ENDBRANCH   7  19
TORSDOF 5
ENDMDL
MODEL 7
REMARK VINA RESULT:      -6.4      2.965      4.718
REMARK  5 active torsions:
REMARK  status: ('A' for Active; 'I' for Inactive)
REMARK    1  A    between atoms: N1_2  and  C2_3 
REMARK    2  A    between atoms: C2_3  and  N5_19 
REMARK    3  A    between atoms: C7_9  and  N3_10 
REMARK       I    between atoms: N3_10  and  C8_11 
REMARK    4  A    between atoms: C8_11  and  C9_13 
REMARK    5  A    between atoms: C16_25  and  O4_26 
ROOT
HETATM    1  C2  UNL     1      21.129   5.069  50.388  1.00  0.00     0.162 C 
HETATM    2  C3  UNL     1      20.160   4.216  50.383  1.00  0.00     0.217 A 
HETATM    3  N2  UNL     1      18.861   3.883  50.424  1.00  0.00     0.023 N 
HETATM    4  C4  UNL     1      17.722   4.406  50.505  1.00  0.00     0.211 A 
HETATM    5  C5  UNL     1      17.440   2.953  50.438  1.00  0.00     0.037 A 
HETATM    6  C6  UNL     1      18.609   2.292  50.350  1.00  0.00     0.282 A 
HETATM    7  C7  UNL     1      20.039   2.766  50.317  1.00  0.00     0.350 A 
ENDROOT
BRANCH   1   8
HETATM    8  N1  UNL     1      21.007   6.478  50.481  1.00  0.00    -0.252 NA
HETATM    9  C1  UNL     1      20.346   7.179  49.622  1.00  0.00     0.151 C 
ENDBRANCH   1   8
BRANCH   1  10
HETATM   10  N5  UNL     1      22.510   4.785  50.298  1.00  0.00    -0.334 N 
HETATM   11  C12 UNL     1      23.201   4.063  49.244  1.00  0.00     0.155 C 
HETATM   12  C13 UNL     1      24.132   3.048  49.805  1.00  0.00     0.008 C 
HETATM   13  C14 UNL     1      24.460   2.972  51.099  1.00  0.00    -0.009 C 
HETATM   14 BR1  UNL     1      25.670   1.647  51.809  1.00  0.00    -0.056 Br
HETATM   15  C15 UNL     1      23.890   3.937  52.079  1.00  0.00     0.100 C 
HETATM   16  C16 UNL     1      23.478   5.174  51.269  1.00  0.00     0.228 C 
BRANCH  16  17
HETATM   17  O4  UNL     1      24.651   5.694  50.773  1.00  0.00    -0.371 OA
HETATM   18  C17 UNL     1      24.690   7.079  50.797  1.00  0.00     0.204 C 
ENDBRANCH  16  17
ENDBRANCH   1  10
BRANCH   7  19
HETATM   19  N3  UNL     1      20.646   2.094  51.462  1.00  0.00    -0.327 N 
HETATM   20  C8  UNL     1      21.507   1.023  51.720  1.00  0.00     0.244 C 
HETATM   21  O1  UNL     1      21.876   0.469  50.655  1.00  0.00    -0.271 OA
HETATM   22  H7  UNL     1      20.263   2.647  52.289  1.00  0.00     0.165 HD
BRANCH  20  23
HETATM   23  C9  UNL     1      21.871   0.676  53.105  1.00  0.00     0.203 C 
HETATM   24  C10 UNL     1      20.708   0.762  54.072  1.00  0.00     0.215 C 
HETATM   25  O2  UNL     1      20.922  -0.289  55.003  1.00  0.00    -0.301 OA
HETATM   26  C11 UNL     1      22.046  -1.016  54.615  1.00  0.00     0.361 C 
HETATM   27  O3  UNL     1      22.632  -1.834  55.400  1.00  0.00    -0.238 OA
HETATM   28  N4  UNL     1      22.359  -0.663  53.252  1.00  0.00    -0.322 N 
HETATM   29  H11 UNL     1      22.843  -1.416  52.715  1.00  0.00     0.165 HD
ENDBRANCH  20  23
ENDBRANCH   7  19
TORSDOF 5
ENDMDL
MODEL 8
REMARK VINA RESULT:      -6.3      2.955      5.908
REMARK  5 active torsions:
REMARK  status: ('A' for Active; 'I' for Inactive)
REMARK    1  A    between atoms: N1_2  and  C2_3 
REMARK    2  A    between atoms: C2_3  and  N5_19 
REMARK    3  A    between atoms: C7_9  and  N3_10 
REMARK       I    between atoms: N3_10  and  C8_11 
REMARK    4  A    between atoms: C8_11  and  C9_13 
REMARK    5  A    between atoms: C16_25  and  O4_26 
ROOT
HETATM    1  C2  UNL     1      24.644   2.682  51.883  1.00  0.00     0.162 C 
HETATM    2  C3  UNL     1      23.920   1.791  52.474  1.00  0.00     0.217 A 
HETATM    3  N2  UNL     1      23.714   0.573  52.995  1.00  0.00     0.023 N 
HETATM    4  C4  UNL     1      24.304  -0.519  53.186  1.00  0.00     0.211 A 
HETATM    5  C5  UNL     1      22.954  -0.744  53.753  1.00  0.00     0.037 A 
HETATM    6  C6  UNL     1      22.230   0.380  53.597  1.00  0.00     0.282 A 
HETATM    7  C7  UNL     1      22.556   1.716  52.981  1.00  0.00     0.350 A 
ENDROOT
BRANCH   1   8
HETATM    8  N1  UNL     1      25.984   2.521  51.450  1.00  0.00    -0.252 NA
HETATM    9  C1  UNL     1      26.928   2.120  52.234  1.00  0.00     0.151 C 
ENDBRANCH   1   8
BRANCH   1  10
HETATM   10  N5  UNL     1      24.263   4.000  51.547  1.00  0.00    -0.334 N 
HETATM   11  C12 UNL     1      23.458   4.919  52.334  1.00  0.00     0.155 C 
HETATM   12  C13 UNL     1      22.401   5.558  51.504  1.00  0.00     0.008 C 
HETATM   13  C14 UNL     1      22.348   5.474  50.171  1.00  0.00    -0.009 C 
HETATM   14 BR1  UNL     1      20.968   6.309  49.113  1.00  0.00    -0.056 Br
HETATM   15  C15 UNL     1      23.383   4.711  49.422  1.00  0.00     0.100 C 
HETATM   16  C16 UNL     1      24.617   4.657  50.333  1.00  0.00     0.228 C 
BRANCH  16  17
HETATM   17  O4  UNL     1      25.037   5.962  50.457  1.00  0.00    -0.371 OA
HETATM   18  C17 UNL     1      25.940   6.342  49.477  1.00  0.00     0.204 C 
ENDBRANCH  16  17
ENDBRANCH   1  10
BRANCH   7  19
HETATM   19  N3  UNL     1      21.552   1.861  51.931  1.00  0.00    -0.327 N 
HETATM   20  C8  UNL     1      20.350   2.539  51.710  1.00  0.00     0.244 C 
HETATM   21  O1  UNL     1      20.031   3.236  52.705  1.00  0.00    -0.271 OA
HETATM   22  H7  UNL     1      21.930   1.233  51.156  1.00  0.00     0.165 HD
BRANCH  20  23
HETATM   23  C9  UNL     1      19.630   2.383  50.434  1.00  0.00     0.203 C 
HETATM   24  C10 UNL     1      18.500   3.377  50.257  1.00  0.00     0.215 C 
HETATM   25  O2  UNL     1      18.487   3.679  48.869  1.00  0.00    -0.301 OA
HETATM   26  C11 UNL     1      19.550   3.021  48.252  1.00  0.00     0.361 C 
HETATM   27  O3  UNL     1      19.623   2.886  46.985  1.00  0.00    -0.238 OA
HETATM   28  N4  UNL     1      20.457   2.575  49.280  1.00  0.00    -0.322 N 
HETATM   29  H11 UNL     1      21.451   2.494  48.969  1.00  0.00     0.165 HD
ENDBRANCH  20  23
ENDBRANCH   7  19
TORSDOF 5
ENDMDL
MODEL 9
REMARK VINA RESULT:      -6.3      3.581      6.585
REMARK  5 active torsions:
REMARK  status: ('A' for Active; 'I' for Inactive)
REMARK    1  A    between atoms: N1_2  and  C2_3 
REMARK    2  A    between atoms: C2_3  and  N5_19 
REMARK    3  A    between atoms: C7_9  and  N3_10 
REMARK       I    between atoms: N3_10  and  C8_11 
REMARK    4  A    between atoms: C8_11  and  C9_13 
REMARK    5  A    between atoms: C16_25  and  O4_26 
ROOT
HETATM    1  C2  UNL     1      23.370   1.456  51.994  1.00  0.00     0.162 C 
HETATM    2  C3  UNL     1      24.088   2.135  51.163  1.00  0.00     0.217 A 
HETATM    3  N2  UNL     1      25.238   2.692  50.755  1.00  0.00     0.023 N 
HETATM    4  C4  UNL     1      26.437   2.821  51.106  1.00  0.00     0.211 A 
HETATM    5  C5  UNL     1      26.365   3.549  49.818  1.00  0.00     0.037 A 
HETATM    6  C6  UNL     1      25.105   3.473  49.351  1.00  0.00     0.282 A 
HETATM    7  C7  UNL     1      23.862   2.818  49.896  1.00  0.00     0.350 A 
ENDROOT
BRANCH   1   8
HETATM    8  N1  UNL     1      23.812   0.883  53.213  1.00  0.00    -0.252 NA
HETATM    9  C1  UNL     1      24.479  -0.221  53.263  1.00  0.00     0.151 C 
ENDBRANCH   1   8
BRANCH   1  10
HETATM   10  N5  UNL     1      21.999   1.136  51.868  1.00  0.00    -0.334 N 
HETATM   11  C12 UNL     1      21.355   0.405  50.791  1.00  0.00     0.155 C 
HETATM   12  C13 UNL     1      20.123   1.099  50.328  1.00  0.00     0.008 C 
HETATM   13  C14 UNL     1      19.562   2.128  50.970  1.00  0.00    -0.009 C 
HETATM   14 BR1  UNL     1      17.964   3.016  50.354  1.00  0.00    -0.056 Br
HETATM   15  C15 UNL     1      20.163   2.649  52.228  1.00  0.00     0.100 C 
HETATM   16  C16 UNL     1      20.996   1.500  52.812  1.00  0.00     0.228 C 
BRANCH  16  17
HETATM   17  O4  UNL     1      20.089   0.516  53.133  1.00  0.00    -0.371 OA
HETATM   18  C17 UNL     1      20.491  -0.273  54.198  1.00  0.00     0.204 C 
ENDBRANCH  16  17
ENDBRANCH   1  10
BRANCH   7  19
HETATM   19  N3  UNL     1      22.917   3.925  50.010  1.00  0.00    -0.327 N 
HETATM   20  C8  UNL     1      21.774   4.404  49.364  1.00  0.00     0.244 C 
HETATM   21  O1  UNL     1      21.456   3.669  48.396  1.00  0.00    -0.271 OA
HETATM   22  H7  UNL     1      23.288   4.465  50.851  1.00  0.00     0.165 HD
BRANCH  20  23
HETATM   23  C9  UNL     1      21.105   5.628  49.840  1.00  0.00     0.203 C 
HETATM   24  C10 UNL     1      21.642   6.129  51.165  1.00  0.00     0.215 C 
HETATM   25  O2  UNL     1      21.579   7.545  51.078  1.00  0.00    -0.301 OA
HETATM   26  C11 UNL     1      21.138   7.902  49.804  1.00  0.00     0.361 C 
HETATM   27  O3  UNL     1      20.727   9.079  49.531  1.00  0.00    -0.238 OA
HETATM   28  N4  UNL     1      21.248   6.743  48.952  1.00  0.00    -0.322 N 
HETATM   29  H11 UNL     1      21.394   6.966  47.943  1.00  0.00     0.165 HD
ENDBRANCH  20  23
ENDBRANCH   7  19
TORSDOF 5
ENDMDL
