MODEL 1
REMARK VINA RESULT:      -7.8      0.000      0.000
REMARK  3 active torsions:
REMARK  status: ('A' for Active; 'I' for Inactive)
REMARK    1  A    between atoms: C6_8  and  O1_9 
REMARK    2  A    between atoms: O1_9  and  C7_10 
REMARK    3  A    between atoms: N1_12  and  C9_13 
ROOT
HETATM    1  C9  UNL     1      23.459   4.380  50.900  1.00  0.00     0.147 A 
HETATM    2  N2  UNL     1      23.739   5.530  51.585  1.00  0.00    -0.223 NA
HETATM    3  C10 UNL     1      23.720   6.700  50.886  1.00  0.00     0.235 A 
HETATM    4  N3  UNL     1      23.454   6.865  49.569  1.00  0.00    -0.253 NA
HETATM    5  C11 UNL     1      23.174   5.753  48.858  1.00  0.00     0.142 A 
HETATM    6  C12 UNL     1      23.192   4.572  49.561  1.00  0.00     0.088 A 
HETATM    7  S1  UNL     1      22.870   3.277  48.755  1.00  0.00     0.040 SA
HETATM    8  N4  UNL     1      22.598   2.236  48.083  1.00  0.00    -0.103 N 
ENDROOT
BRANCH   1   9
HETATM    9  N1  UNL     1      23.451   3.119  51.521  1.00  0.00    -0.358 N 
HETATM   10  C8  UNL     1      24.574   2.207  51.537  1.00  0.00     0.163 C 
HETATM   11  C7  UNL     1      24.612   1.395  52.823  1.00  0.00     0.191 C 
HETATM   12  C15 UNL     1      23.246   0.760  52.925  1.00  0.00     0.040 C 
HETATM   13  C14 UNL     1      22.163   1.459  52.605  1.00  0.00     0.015 C 
HETATM   14 CL1  UNL     1      23.044  -0.902  53.461  1.00  0.00    -0.086 Cl
HETATM   15  C13 UNL     1      22.162   2.879  52.134  1.00  0.00     0.153 C 
BRANCH  11  16
HETATM   16  O1  UNL     1      25.520   0.363  52.678  1.00  0.00    -0.338 OA
BRANCH  16  17
HETATM   17  C6  UNL     1      26.836   0.313  53.101  1.00  0.00     0.080 A 
HETATM   18  C2  UNL     1      27.451  -0.931  52.924  1.00  0.00     0.010 A 
HETATM   19  C1  UNL     1      26.677  -2.075  52.315  1.00  0.00     0.054 C 
HETATM   20  C3  UNL     1      28.735  -1.243  53.256  1.00  0.00     0.126 A 
HETATM   21  F1  UNL     1      29.255  -2.501  53.042  1.00  0.00    -0.205 F 
HETATM   22  C4  UNL     1      29.695  -0.407  53.832  1.00  0.00     0.058 A 
HETATM   23  P1  UNL     1      29.132   1.224  54.145  1.00  0.00    -0.029 P 
HETATM   24  C5  UNL     1      27.460   1.415  53.648  1.00  0.00     0.053 A 
ENDBRANCH  16  17
ENDBRANCH  11  16
ENDBRANCH   1   9
TORSDOF 3
ENDMDL
MODEL 2
REMARK VINA RESULT:      -7.5      1.524      2.253
REMARK  3 active torsions:
REMARK  status: ('A' for Active; 'I' for Inactive)
REMARK    1  A    between atoms: C6_8  and  O1_9 
REMARK    2  A    between atoms: O1_9  and  C7_10 
REMARK    3  A    between atoms: N1_12  and  C9_13 
ROOT
HETATM    1  C9  UNL     1      21.895   2.973  50.518  1.00  0.00     0.147 A 
HETATM    2  N2  UNL     1      21.211   2.634  49.385  1.00  0.00    -0.223 NA
HETATM    3  C10 UNL     1      20.848   3.641  48.541  1.00  0.00     0.235 A 
HETATM    4  N3  UNL     1      21.087   4.964  48.694  1.00  0.00    -0.253 NA
HETATM    5  C11 UNL     1      21.761   5.341  49.801  1.00  0.00     0.142 A 
HETATM    6  C12 UNL     1      22.128   4.326  50.653  1.00  0.00     0.088 A 
HETATM    7  S1  UNL     1      22.907   4.741  51.937  1.00  0.00     0.040 SA
HETATM    8  N4  UNL     1      23.547   5.100  52.972  1.00  0.00    -0.103 N 
ENDROOT
BRANCH   1   9
HETATM    9  N1  UNL     1      22.317   2.015  51.456  1.00  0.00    -0.358 N 
HETATM   10  C8  UNL     1      23.616   1.378  51.448  1.00  0.00     0.163 C 
HETATM   11  C7  UNL     1      24.092   1.068  52.860  1.00  0.00     0.191 C 
HETATM   12  C15 UNL     1      22.971   0.271  53.483  1.00  0.00     0.040 C 
HETATM   13  C14 UNL     1      21.708   0.616  53.262  1.00  0.00     0.015 C 
HETATM   14 CL1  UNL     1      23.293  -1.121  54.508  1.00  0.00    -0.086 Cl
HETATM   15  C13 UNL     1      21.265   1.770  52.419  1.00  0.00     0.153 C 
BRANCH  11  16
HETATM   16  O1  UNL     1      25.186   0.226  52.791  1.00  0.00    -0.338 OA
BRANCH  16  17
HETATM   17  C6  UNL     1      26.505   0.508  53.100  1.00  0.00     0.080 A 
HETATM   18  C2  UNL     1      27.360  -0.597  53.039  1.00  0.00     0.010 A 
HETATM   19  C1  UNL     1      26.814  -1.953  52.660  1.00  0.00     0.054 C 
HETATM   20  C3  UNL     1      28.698  -0.589  53.295  1.00  0.00     0.126 A 
HETATM   21  F1  UNL     1      29.462  -1.733  53.208  1.00  0.00    -0.205 F 
HETATM   22  C4  UNL     1      29.489   0.501  53.665  1.00  0.00     0.058 A 
HETATM   23  P1  UNL     1      28.610   2.013  53.804  1.00  0.00    -0.029 P 
HETATM   24  C5  UNL     1      26.910   1.784  53.435  1.00  0.00     0.053 A 
ENDBRANCH  16  17
ENDBRANCH  11  16
ENDBRANCH   1   9
TORSDOF 3
ENDMDL
MODEL 3
REMARK VINA RESULT:      -7.4      4.752      7.748
REMARK  3 active torsions:
REMARK  status: ('A' for Active; 'I' for Inactive)
REMARK    1  A    between atoms: C6_8  and  O1_9 
REMARK    2  A    between atoms: O1_9  and  C7_10 
REMARK    3  A    between atoms: N1_12  and  C9_13 
ROOT
HETATM    1  C9  UNL     1      27.262  -0.318  52.888  1.00  0.00     0.147 A 
HETATM    2  N2  UNL     1      26.870  -1.575  52.523  1.00  0.00    -0.223 NA
HETATM    3  C10 UNL     1      27.751  -2.595  52.728  1.00  0.00     0.235 A 
HETATM    4  N3  UNL     1      28.993  -2.511  53.259  1.00  0.00    -0.253 NA
HETATM    5  C11 UNL     1      29.417  -1.285  53.632  1.00  0.00     0.142 A 
HETATM    6  C12 UNL     1      28.530  -0.256  53.426  1.00  0.00     0.088 A 
HETATM    7  S1  UNL     1      29.003   1.167  53.851  1.00  0.00     0.040 SA
HETATM    8  N4  UNL     1      29.404   2.316  54.210  1.00  0.00    -0.103 N 
ENDROOT
BRANCH   1   9
HETATM    9  N1  UNL     1      26.433   0.806  52.720  1.00  0.00    -0.358 N 
HETATM   10  C8  UNL     1      26.448   1.668  51.559  1.00  0.00     0.163 C 
HETATM   11  C7  UNL     1      25.063   2.225  51.263  1.00  0.00     0.191 C 
HETATM   12  C15 UNL     1      24.616   2.867  52.555  1.00  0.00     0.040 C 
HETATM   13  C14 UNL     1      24.864   2.269  53.714  1.00  0.00     0.015 C 
HETATM   14 CL1  UNL     1      23.765   4.405  52.569  1.00  0.00    -0.086 Cl
HETATM   15  C13 UNL     1      25.575   0.962  53.875  1.00  0.00     0.153 C 
BRANCH  11  16
HETATM   16  O1  UNL     1      25.176   3.242  50.333  1.00  0.00    -0.338 OA
BRANCH  16  17
HETATM   17  C6  UNL     1      24.230   3.683  49.426  1.00  0.00     0.080 A 
HETATM   18  C2  UNL     1      24.413   5.002  48.997  1.00  0.00     0.010 A 
HETATM   19  C1  UNL     1      25.570   5.813  49.527  1.00  0.00     0.054 C 
HETATM   20  C3  UNL     1      23.624   5.672  48.110  1.00  0.00     0.126 A 
HETATM   21  F1  UNL     1      23.885   6.975  47.747  1.00  0.00    -0.205 F 
HETATM   22  C4  UNL     1      22.488   5.197  47.451  1.00  0.00     0.058 A 
HETATM   23  P1  UNL     1      22.068   3.540  47.844  1.00  0.00    -0.029 P 
HETATM   24  C5  UNL     1      23.205   2.864  48.999  1.00  0.00     0.053 A 
ENDBRANCH  16  17
ENDBRANCH  11  16
ENDBRANCH   1   9
TORSDOF 3
ENDMDL
MODEL 4
REMARK VINA RESULT:      -7.1      4.294      7.084
REMARK  3 active torsions:
REMARK  status: ('A' for Active; 'I' for Inactive)
REMARK    1  A    between atoms: C6_8  and  O1_9 
REMARK    2  A    between atoms: O1_9  and  C7_10 
REMARK    3  A    between atoms: N1_12  and  C9_13 
ROOT
HETATM    1  C9  UNL     1      26.329   0.914  53.741  1.00  0.00     0.147 A 
HETATM    2  N2  UNL     1      26.750   0.248  54.858  1.00  0.00    -0.223 NA
HETATM    3  C10 UNL     1      28.092   0.187  55.088  1.00  0.00     0.235 A 
HETATM    4  N3  UNL     1      29.079   0.717  54.328  1.00  0.00    -0.253 NA
HETATM    5  C11 UNL     1      28.705   1.383  53.216  1.00  0.00     0.142 A 
HETATM    6  C12 UNL     1      27.352   1.445  52.983  1.00  0.00     0.088 A 
HETATM    7  S1  UNL     1      26.900   2.211  51.702  1.00  0.00     0.040 SA
HETATM    8  N4  UNL     1      26.553   2.844  50.660  1.00  0.00    -0.103 N 
ENDROOT
BRANCH   1   9
HETATM    9  N1  UNL     1      24.969   1.037  53.408  1.00  0.00    -0.358 N 
HETATM   10  C8  UNL     1      24.262   2.294  53.308  1.00  0.00     0.163 C 
HETATM   11  C7  UNL     1      23.178   2.239  52.241  1.00  0.00     0.191 C 
HETATM   12  C15 UNL     1      22.338   1.037  52.599  1.00  0.00     0.040 C 
HETATM   13  C14 UNL     1      22.921  -0.079  53.020  1.00  0.00     0.015 C 
HETATM   14 CL1  UNL     1      20.585   1.072  52.473  1.00  0.00    -0.086 Cl
HETATM   15  C13 UNL     1      24.396  -0.273  53.182  1.00  0.00     0.153 C 
BRANCH  11  16
HETATM   16  O1  UNL     1      22.361   3.347  52.371  1.00  0.00    -0.338 OA
BRANCH  16  17
HETATM   17  C6  UNL     1      22.471   4.572  51.737  1.00  0.00     0.080 A 
HETATM   18  C2  UNL     1      21.280   5.034  51.167  1.00  0.00     0.010 A 
HETATM   19  C1  UNL     1      20.021   4.207  51.276  1.00  0.00     0.054 C 
HETATM   20  C3  UNL     1      21.118   6.206  50.490  1.00  0.00     0.126 A 
HETATM   21  F1  UNL     1      19.901   6.578  49.962  1.00  0.00    -0.205 F 
HETATM   22  C4  UNL     1      22.086   7.178  50.225  1.00  0.00     0.058 A 
HETATM   23  P1  UNL     1      23.678   6.800  50.857  1.00  0.00    -0.029 P 
HETATM   24  C5  UNL     1      23.669   5.254  51.689  1.00  0.00     0.053 A 
ENDBRANCH  16  17
ENDBRANCH  11  16
ENDBRANCH   1   9
TORSDOF 3
ENDMDL
MODEL 5
REMARK VINA RESULT:      -7.0      4.629      6.855
REMARK  3 active torsions:
REMARK  status: ('A' for Active; 'I' for Inactive)
REMARK    1  A    between atoms: C6_8  and  O1_9 
REMARK    2  A    between atoms: O1_9  and  C7_10 
REMARK    3  A    between atoms: N1_12  and  C9_13 
ROOT
HETATM    1  C9  UNL     1      22.663   0.615  53.142  1.00  0.00     0.147 A 
HETATM    2  N2  UNL     1      21.481   0.416  53.798  1.00  0.00    -0.223 NA
HETATM    3  C10 UNL     1      21.477  -0.466  54.838  1.00  0.00     0.235 A 
HETATM    4  N3  UNL     1      22.524  -1.183  55.309  1.00  0.00    -0.253 NA
HETATM    5  C11 UNL     1      23.710  -1.015  54.687  1.00  0.00     0.142 A 
HETATM    6  C12 UNL     1      23.715  -0.126  53.638  1.00  0.00     0.088 A 
HETATM    7  S1  UNL     1      25.077   0.081  52.908  1.00  0.00     0.040 SA
HETATM    8  N4  UNL     1      26.196   0.241  52.333  1.00  0.00    -0.103 N 
ENDROOT
BRANCH   1   9
HETATM    9  N1  UNL     1      22.780   1.500  52.056  1.00  0.00    -0.358 N 
HETATM   10  C8  UNL     1      23.420   2.795  52.122  1.00  0.00     0.163 C 
HETATM   11  C7  UNL     1      24.095   3.149  50.804  1.00  0.00     0.191 C 
HETATM   12  C15 UNL     1      23.014   3.000  49.760  1.00  0.00     0.040 C 
HETATM   13  C14 UNL     1      22.164   1.983  49.826  1.00  0.00     0.015 C 
HETATM   14 CL1  UNL     1      22.847   4.151  48.441  1.00  0.00    -0.086 Cl
HETATM   15  C13 UNL     1      22.170   0.920  50.879  1.00  0.00     0.153 C 
BRANCH  11  16
HETATM   16  O1  UNL     1      24.447   4.486  50.823  1.00  0.00    -0.338 OA
BRANCH  16  17
HETATM   17  C6  UNL     1      25.455   5.117  50.117  1.00  0.00     0.080 A 
HETATM   18  C2  UNL     1      25.386   6.514  50.139  1.00  0.00     0.010 A 
HETATM   19  C1  UNL     1      24.274   7.203  50.893  1.00  0.00     0.054 C 
HETATM   20  C3  UNL     1      26.254   7.368  49.527  1.00  0.00     0.126 A 
HETATM   21  F1  UNL     1      26.105   8.735  49.606  1.00  0.00    -0.205 F 
HETATM   22  C4  UNL     1      27.375   7.040  48.761  1.00  0.00     0.058 A 
HETATM   23  P1  UNL     1      27.656   5.316  48.597  1.00  0.00    -0.029 P 
HETATM   24  C5  UNL     1      26.431   4.399  49.457  1.00  0.00     0.053 A 
ENDBRANCH  16  17
ENDBRANCH  11  16
ENDBRANCH   1   9
TORSDOF 3
ENDMDL
MODEL 6
REMARK VINA RESULT:      -7.0      3.428      4.481
REMARK  3 active torsions:
REMARK  status: ('A' for Active; 'I' for Inactive)
REMARK    1  A    between atoms: C6_8  and  O1_9 
REMARK    2  A    between atoms: O1_9  and  C7_10 
REMARK    3  A    between atoms: N1_12  and  C9_13 
ROOT
HETATM    1  C9  UNL     1      24.493   6.031  50.159  1.00  0.00     0.147 A 
HETATM    2  N2  UNL     1      24.959   7.175  50.744  1.00  0.00    -0.223 NA
HETATM    3  C10 UNL     1      24.480   8.363  50.279  1.00  0.00     0.235 A 
HETATM    4  N3  UNL     1      23.580   8.551  49.285  1.00  0.00    -0.253 NA
HETATM    5  C11 UNL     1      23.096   7.446  48.680  1.00  0.00     0.142 A 
HETATM    6  C12 UNL     1      23.578   6.247  49.149  1.00  0.00     0.088 A 
HETATM    7  S1  UNL     1      23.030   4.960  48.463  1.00  0.00     0.040 SA
HETATM    8  N4  UNL     1      22.566   3.924  47.896  1.00  0.00    -0.103 N 
ENDROOT
BRANCH   1   9
HETATM    9  N1  UNL     1      24.920   4.753  50.560  1.00  0.00    -0.358 N 
HETATM   10  C8  UNL     1      24.285   3.966  51.594  1.00  0.00     0.163 C 
HETATM   11  C7  UNL     1      24.379   2.476  51.294  1.00  0.00     0.191 C 
HETATM   12  C15 UNL     1      25.850   2.215  51.076  1.00  0.00     0.040 C 
HETATM   13  C14 UNL     1      26.585   3.083  50.392  1.00  0.00     0.015 C 
HETATM   14 CL1  UNL     1      26.629   0.772  51.710  1.00  0.00    -0.086 Cl
HETATM   15  C13 UNL     1      26.077   4.355  49.788  1.00  0.00     0.153 C 
BRANCH  11  16
HETATM   16  O1  UNL     1      24.012   1.766  52.422  1.00  0.00    -0.338 OA
BRANCH  16  17
HETATM   17  C6  UNL     1      22.804   1.147  52.690  1.00  0.00     0.080 A 
HETATM   18  C2  UNL     1      22.909  -0.000  53.482  1.00  0.00     0.010 A 
HETATM   19  C1  UNL     1      24.262  -0.462  53.967  1.00  0.00     0.054 C 
HETATM   20  C3  UNL     1      21.874  -0.789  53.889  1.00  0.00     0.126 A 
HETATM   21  F1  UNL     1      22.076  -1.905  54.672  1.00  0.00    -0.205 F 
HETATM   22  C4  UNL     1      20.516  -0.626  53.608  1.00  0.00     0.058 A 
HETATM   23  P1  UNL     1      20.150   0.771  52.613  1.00  0.00    -0.029 P 
HETATM   24  C5  UNL     1      21.615   1.646  52.201  1.00  0.00     0.053 A 
ENDBRANCH  16  17
ENDBRANCH  11  16
ENDBRANCH   1   9
TORSDOF 3
ENDMDL
MODEL 7
REMARK VINA RESULT:      -6.9      3.385      4.642
REMARK  3 active torsions:
REMARK  status: ('A' for Active; 'I' for Inactive)
REMARK    1  A    between atoms: C6_8  and  O1_9 
REMARK    2  A    between atoms: O1_9  and  C7_10 
REMARK    3  A    between atoms: N1_12  and  C9_13 
ROOT
HETATM    1  C9  UNL     1      24.911   5.591  49.417  1.00  0.00     0.147 A 
HETATM    2  N2  UNL     1      26.155   5.677  48.857  1.00  0.00    -0.223 NA
HETATM    3  C10 UNL     1      26.831   6.852  49.000  1.00  0.00     0.235 A 
HETATM    4  N3  UNL     1      26.410   7.967  49.642  1.00  0.00    -0.253 NA
HETATM    5  C11 UNL     1      25.186   7.923  50.208  1.00  0.00     0.142 A 
HETATM    6  C12 UNL     1      24.503   6.739  50.065  1.00  0.00     0.088 A 
HETATM    7  S1  UNL     1      23.087   6.668  50.713  1.00  0.00     0.040 SA
HETATM    8  N4  UNL     1      21.940   6.629  51.254  1.00  0.00    -0.103 N 
ENDROOT
BRANCH   1   9
HETATM    9  N1  UNL     1      24.126   4.428  49.330  1.00  0.00    -0.358 N 
HETATM   10  C8  UNL     1      24.282   3.270  50.182  1.00  0.00     0.163 C 
HETATM   11  C7  UNL     1      22.948   2.584  50.437  1.00  0.00     0.191 C 
HETATM   12  C15 UNL     1      22.377   2.319  49.064  1.00  0.00     0.040 C 
HETATM   13  C14 UNL     1      22.488   3.237  48.110  1.00  0.00     0.015 C 
HETATM   14 CL1  UNL     1      21.559   0.810  48.685  1.00  0.00    -0.086 Cl
HETATM   15  C13 UNL     1      23.152   4.568  48.269  1.00  0.00     0.153 C 
BRANCH  11  16
HETATM   16  O1  UNL     1      23.179   1.349  51.015  1.00  0.00    -0.338 OA
BRANCH  16  17
HETATM   17  C6  UNL     1      22.546   0.782  52.106  1.00  0.00     0.080 A 
HETATM   18  C2  UNL     1      23.411   0.167  53.018  1.00  0.00     0.010 A 
HETATM   19  C1  UNL     1      24.898   0.163  52.761  1.00  0.00     0.054 C 
HETATM   20  C3  UNL     1      23.043  -0.461  54.170  1.00  0.00     0.126 A 
HETATM   21  F1  UNL     1      23.971  -1.041  55.009  1.00  0.00    -0.205 F 
HETATM   22  C4  UNL     1      21.753  -0.623  54.680  1.00  0.00     0.058 A 
HETATM   23  P1  UNL     1      20.493   0.081  53.684  1.00  0.00    -0.029 P 
HETATM   24  C5  UNL     1      21.176   0.837  52.254  1.00  0.00     0.053 A 
ENDBRANCH  16  17
ENDBRANCH  11  16
ENDBRANCH   1   9
TORSDOF 3
ENDMDL
MODEL 8
REMARK VINA RESULT:      -6.7      4.824      7.686
REMARK  3 active torsions:
REMARK  status: ('A' for Active; 'I' for Inactive)
REMARK    1  A    between atoms: C6_8  and  O1_9 
REMARK    2  A    between atoms: O1_9  and  C7_10 
REMARK    3  A    between atoms: N1_12  and  C9_13 
ROOT
HETATM    1  C9  UNL     1      27.250  -0.506  53.102  1.00  0.00     0.147 A 
HETATM    2  N2  UNL     1      26.968  -1.832  52.931  1.00  0.00    -0.223 NA
HETATM    3  C10 UNL     1      27.990  -2.720  53.085  1.00  0.00     0.235 A 
HETATM    4  N3  UNL     1      29.279  -2.441  53.392  1.00  0.00    -0.253 NA
HETATM    5  C11 UNL     1      29.599  -1.142  53.570  1.00  0.00     0.142 A 
HETATM    6  C12 UNL     1      28.568  -0.245  53.415  1.00  0.00     0.088 A 
HETATM    7  S1  UNL     1      28.918   1.260  53.616  1.00  0.00     0.040 SA
HETATM    8  N4  UNL     1      29.222   2.479  53.791  1.00  0.00    -0.103 N 
ENDROOT
BRANCH   1   9
HETATM    9  N1  UNL     1      26.271   0.495  52.967  1.00  0.00    -0.358 N 
HETATM   10  C8  UNL     1      25.538   0.762  51.749  1.00  0.00     0.163 C 
HETATM   11  C7  UNL     1      24.124   1.242  52.047  1.00  0.00     0.191 C 
HETATM   12  C15 UNL     1      24.299   2.415  52.982  1.00  0.00     0.040 C 
HETATM   13  C14 UNL     1      25.207   2.363  53.949  1.00  0.00     0.015 C 
HETATM   14 CL1  UNL     1      23.322   3.868  52.824  1.00  0.00    -0.086 Cl
HETATM   15  C13 UNL     1      26.115   1.204  54.218  1.00  0.00     0.153 C 
BRANCH  11  16
HETATM   16  O1  UNL     1      23.565   1.741  50.885  1.00  0.00    -0.338 OA
BRANCH  16  17
HETATM   17  C6  UNL     1      22.245   1.681  50.476  1.00  0.00     0.080 A 
HETATM   18  C2  UNL     1      21.979   2.366  49.286  1.00  0.00     0.010 A 
HETATM   19  C1  UNL     1      23.093   3.087  48.566  1.00  0.00     0.054 C 
HETATM   20  C3  UNL     1      20.767   2.461  48.670  1.00  0.00     0.126 A 
HETATM   21  F1  UNL     1      20.602   3.161  47.494  1.00  0.00    -0.205 F 
HETATM   22  C4  UNL     1      19.554   1.907  49.085  1.00  0.00     0.058 A 
HETATM   23  P1  UNL     1      19.654   0.992  50.578  1.00  0.00    -0.029 P 
HETATM   24  C5  UNL     1      21.295   0.994  51.203  1.00  0.00     0.053 A 
ENDBRANCH  16  17
ENDBRANCH  11  16
ENDBRANCH   1   9
TORSDOF 3
ENDMDL
MODEL 9
REMARK VINA RESULT:      -6.7      4.485      7.270
REMARK  3 active torsions:
REMARK  status: ('A' for Active; 'I' for Inactive)
REMARK    1  A    between atoms: C6_8  and  O1_9 
REMARK    2  A    between atoms: O1_9  and  C7_10 
REMARK    3  A    between atoms: N1_12  and  C9_13 
ROOT
HETATM    1  C9  UNL     1      27.100  -0.425  52.607  1.00  0.00     0.147 A 
HETATM    2  N2  UNL     1      26.889  -1.749  52.340  1.00  0.00    -0.223 NA
HETATM    3  C10 UNL     1      27.847  -2.633  52.739  1.00  0.00     0.235 A 
HETATM    4  N3  UNL     1      29.006  -2.353  53.379  1.00  0.00    -0.253 NA
HETATM    5  C11 UNL     1      29.252  -1.056  53.661  1.00  0.00     0.142 A 
HETATM    6  C12 UNL     1      28.287  -0.163  53.259  1.00  0.00     0.088 A 
HETATM    7  S1  UNL     1      28.553   1.339  53.576  1.00  0.00     0.040 SA
HETATM    8  N4  UNL     1      28.785   2.556  53.850  1.00  0.00    -0.103 N 
ENDROOT
BRANCH   1   9
HETATM    9  N1  UNL     1      26.179   0.572  52.240  1.00  0.00    -0.358 N 
HETATM   10  C8  UNL     1      24.806   0.625  52.694  1.00  0.00     0.163 C 
HETATM   11  C7  UNL     1      24.324   2.061  52.838  1.00  0.00     0.191 C 
HETATM   12  C15 UNL     1      24.601   2.701  51.499  1.00  0.00     0.040 C 
HETATM   13  C14 UNL     1      25.732   2.436  50.856  1.00  0.00     0.015 C 
HETATM   14 CL1  UNL     1      23.452   3.805  50.754  1.00  0.00    -0.086 Cl
HETATM   15  C13 UNL     1      26.809   1.523  51.350  1.00  0.00     0.153 C 
BRANCH  11  16
HETATM   16  O1  UNL     1      22.951   2.061  53.002  1.00  0.00    -0.338 OA
BRANCH  16  17
HETATM   17  C6  UNL     1      22.122   0.990  53.285  1.00  0.00     0.080 A 
HETATM   18  C2  UNL     1      20.840   1.094  52.737  1.00  0.00     0.010 A 
HETATM   19  C1  UNL     1      20.466   2.305  51.917  1.00  0.00     0.054 C 
HETATM   20  C3  UNL     1      19.837   0.180  52.866  1.00  0.00     0.126 A 
HETATM   21  F1  UNL     1      18.601   0.370  52.287  1.00  0.00    -0.205 F 
HETATM   22  C4  UNL     1      19.873  -1.033  53.558  1.00  0.00     0.058 A 
HETATM   23  P1  UNL     1      21.409  -1.373  54.335  1.00  0.00    -0.029 P 
HETATM   24  C5  UNL     1      22.555  -0.075  54.047  1.00  0.00     0.053 A 
ENDBRANCH  16  17
ENDBRANCH  11  16
ENDBRANCH   1   9
TORSDOF 3
ENDMDL
