MODEL 1
REMARK VINA RESULT:     -10.0      0.000      0.000
REMARK  3 active torsions:
REMARK  status: ('A' for Active; 'I' for Inactive)
REMARK    1  A    between atoms: O1_1  and  C1_2 
REMARK    2  A    between atoms: C5_6  and  C6_7 
REMARK    3  A    between atoms: C7_9  and  N2_10 
ROOT
HETATM    1  C6  UNL     1      25.878   0.391  52.759  1.00  0.00     0.162 A 
HETATM    2  N1  UNL     1      25.769   1.551  52.085  1.00  0.00    -0.208 NA
HETATM    3  C7  UNL     1      24.570   2.103  51.796  1.00  0.00     0.165 A 
HETATM    4  C12 UNL     1      23.425   1.451  52.209  1.00  0.00     0.153 A 
HETATM    5  O3  UNL     1      22.142   1.706  52.096  1.00  0.00    -0.285 OA
HETATM    6  C13 UNL     1      21.424   0.767  52.664  1.00  0.00     0.182 A 
HETATM    7  N3  UNL     1      20.075   0.604  52.797  1.00  0.00    -0.236 NA
HETATM    8  C14 UNL     1      19.602  -0.484  53.445  1.00  0.00     0.119 A 
HETATM    9  C15 UNL     1      20.408  -1.470  54.000  1.00  0.00     0.020 A 
HETATM   10  C16 UNL     1      21.763  -1.260  53.839  1.00  0.00     0.020 A 
HETATM   11  C17 UNL     1      22.304  -0.170  53.187  1.00  0.00     0.049 A 
HETATM   12  C18 UNL     1      23.583   0.265  52.897  1.00  0.00     0.111 A 
HETATM   13  N4  UNL     1      24.779  -0.286  53.185  1.00  0.00    -0.225 NA
ENDROOT
BRANCH   1  14
HETATM   14  C5  UNL     1      27.206  -0.143  53.034  1.00  0.00     0.014 A 
HETATM   15  C4  UNL     1      28.258   0.715  53.281  1.00  0.00     0.015 A 
HETATM   16  C3  UNL     1      29.494   0.162  53.534  1.00  0.00     0.004 A 
HETATM   17  C2  UNL     1      29.699  -1.193  53.547  1.00  0.00     0.036 A 
HETATM   18  C1  UNL     1      28.622  -2.028  53.295  1.00  0.00     0.066 A 
HETATM   19  C19 UNL     1      27.375  -1.515  53.038  1.00  0.00     0.051 A 
BRANCH  18  20
HETATM   20  O1  UNL     1      28.918  -3.396  53.327  1.00  0.00    -0.361 OA
HETATM   21  H1  UNL     1      28.210  -4.068  53.041  1.00  0.00     0.217 HD
ENDBRANCH  18  20
ENDBRANCH   1  14
BRANCH   3  22
HETATM   22  N2  UNL     1      24.382   3.324  51.088  1.00  0.00    -0.359 N 
HETATM   23  C8  UNL     1      24.709   3.359  49.672  1.00  0.00     0.151 C 
HETATM   24  C9  UNL     1      25.273   4.667  49.214  1.00  0.00     0.187 C 
HETATM   25  O2  UNL     1      25.441   5.516  50.278  1.00  0.00    -0.388 OA
HETATM   26  C10 UNL     1      24.196   5.687  50.889  1.00  0.00     0.187 C 
HETATM   27  C11 UNL     1      23.875   4.491  51.786  1.00  0.00     0.151 C 
ENDBRANCH   3  22
TORSDOF 3
ENDMDL
MODEL 2
REMARK VINA RESULT:      -9.7      1.448      4.754
REMARK  3 active torsions:
REMARK  status: ('A' for Active; 'I' for Inactive)
REMARK    1  A    between atoms: O1_1  and  C1_2 
REMARK    2  A    between atoms: C5_6  and  C6_7 
REMARK    3  A    between atoms: C7_9  and  N2_10 
ROOT
HETATM    1  C6  UNL     1      26.305   0.746  52.254  1.00  0.00     0.162 A 
HETATM    2  N1  UNL     1      25.069   0.318  52.573  1.00  0.00    -0.208 NA
HETATM    3  C7  UNL     1      23.956   0.957  52.150  1.00  0.00     0.165 A 
HETATM    4  C12 UNL     1      24.100   2.085  51.366  1.00  0.00     0.153 A 
HETATM    5  O3  UNL     1      23.252   2.917  50.805  1.00  0.00    -0.285 OA
HETATM    6  C13 UNL     1      23.884   3.857  50.143  1.00  0.00     0.182 A 
HETATM    7  N3  UNL     1      23.433   4.920  49.415  1.00  0.00    -0.236 NA
HETATM    8  C14 UNL     1      24.329   5.744  48.828  1.00  0.00     0.119 A 
HETATM    9  C15 UNL     1      25.706   5.585  48.913  1.00  0.00     0.020 A 
HETATM   10  C16 UNL     1      26.111   4.496  49.659  1.00  0.00     0.020 A 
HETATM   11  C17 UNL     1      25.244   3.620  50.282  1.00  0.00     0.049 A 
HETATM   12  C18 UNL     1      25.385   2.490  51.064  1.00  0.00     0.111 A 
HETATM   13  N4  UNL     1      26.494   1.853  51.485  1.00  0.00    -0.225 NA
ENDROOT
BRANCH   1  14
HETATM   14  C5  UNL     1      27.458   0.005  52.748  1.00  0.00     0.014 A 
HETATM   15  C4  UNL     1      28.571   0.682  53.202  1.00  0.00     0.015 A 
HETATM   16  C3  UNL     1      29.636  -0.062  53.658  1.00  0.00     0.004 A 
HETATM   17  C2  UNL     1      29.617  -1.432  53.672  1.00  0.00     0.036 A 
HETATM   18  C1  UNL     1      28.484  -2.083  53.208  1.00  0.00     0.066 A 
HETATM   19  C19 UNL     1      27.402  -1.375  52.746  1.00  0.00     0.051 A 
BRANCH  18  20
HETATM   20  O1  UNL     1      28.548  -3.480  53.257  1.00  0.00    -0.361 OA
HETATM   21  H1  UNL     1      28.254  -3.966  54.102  1.00  0.00     0.217 HD
ENDBRANCH  18  20
ENDBRANCH   1  14
BRANCH   3  22
HETATM   22  N2  UNL     1      22.622   0.561  52.449  1.00  0.00    -0.359 N 
HETATM   23  C8  UNL     1      21.709   0.316  51.344  1.00  0.00     0.151 C 
HETATM   24  C9  UNL     1      20.296   0.713  51.628  1.00  0.00     0.187 C 
HETATM   25  O2  UNL     1      20.204   1.314  52.858  1.00  0.00    -0.388 OA
HETATM   26  C10 UNL     1      20.679   0.410  53.812  1.00  0.00     0.187 C 
HETATM   27  C11 UNL     1      22.207   0.411  53.832  1.00  0.00     0.151 C 
ENDBRANCH   3  22
TORSDOF 3
ENDMDL
MODEL 3
REMARK VINA RESULT:      -9.7      1.614      5.514
REMARK  3 active torsions:
REMARK  status: ('A' for Active; 'I' for Inactive)
REMARK    1  A    between atoms: O1_1  and  C1_2 
REMARK    2  A    between atoms: C5_6  and  C6_7 
REMARK    3  A    between atoms: C7_9  and  N2_10 
ROOT
HETATM    1  C6  UNL     1      25.033   2.194  51.321  1.00  0.00     0.162 A 
HETATM    2  N1  UNL     1      26.062   1.514  51.860  1.00  0.00    -0.208 NA
HETATM    3  C7  UNL     1      25.872   0.463  52.687  1.00  0.00     0.165 A 
HETATM    4  C12 UNL     1      24.579   0.081  52.985  1.00  0.00     0.153 A 
HETATM    5  O3  UNL     1      24.059  -0.868  53.731  1.00  0.00    -0.285 OA
HETATM    6  C13 UNL     1      22.749  -0.828  53.696  1.00  0.00     0.182 A 
HETATM    7  N3  UNL     1      21.796  -1.597  54.301  1.00  0.00    -0.236 NA
HETATM    8  C14 UNL     1      20.491  -1.324  54.082  1.00  0.00     0.119 A 
HETATM    9  C15 UNL     1      20.038  -0.293  53.268  1.00  0.00     0.020 A 
HETATM   10  C16 UNL     1      21.038   0.455  52.681  1.00  0.00     0.020 A 
HETATM   11  C17 UNL     1      22.387   0.224  52.867  1.00  0.00     0.049 A 
HETATM   12  C18 UNL     1      23.554   0.806  52.412  1.00  0.00     0.111 A 
HETATM   13  N4  UNL     1      23.743   1.854  51.586  1.00  0.00    -0.225 NA
ENDROOT
BRANCH   1  14
HETATM   14  C5  UNL     1      25.315   3.318  50.437  1.00  0.00     0.014 A 
HETATM   15  C4  UNL     1      24.277   4.054  49.903  1.00  0.00     0.015 A 
HETATM   16  C3  UNL     1      24.594   5.106  49.073  1.00  0.00     0.004 A 
HETATM   17  C2  UNL     1      25.890   5.433  48.770  1.00  0.00     0.036 A 
HETATM   18  C1  UNL     1      26.910   4.673  49.322  1.00  0.00     0.066 A 
HETATM   19  C19 UNL     1      26.634   3.617  50.154  1.00  0.00     0.051 A 
BRANCH  18  20
HETATM   20  O1  UNL     1      28.202   5.074  48.962  1.00  0.00    -0.361 OA
HETATM   21  H1  UNL     1      28.517   6.015  49.192  1.00  0.00     0.217 HD
ENDBRANCH  18  20
ENDBRANCH   1  14
BRANCH   3  22
HETATM   22  N2  UNL     1      26.912  -0.300  53.291  1.00  0.00    -0.359 N 
HETATM   23  C8  UNL     1      27.518   0.204  54.513  1.00  0.00     0.151 C 
HETATM   24  C9  UNL     1      28.980  -0.091  54.628  1.00  0.00     0.187 C 
HETATM   25  O2  UNL     1      29.438  -0.699  53.487  1.00  0.00    -0.388 OA
HETATM   26  C10 UNL     1      28.698  -1.870  53.300  1.00  0.00     0.187 C 
HETATM   27  C11 UNL     1      27.338  -1.546  52.682  1.00  0.00     0.151 C 
ENDBRANCH   3  22
TORSDOF 3
ENDMDL
MODEL 4
REMARK VINA RESULT:      -9.4      1.643      2.133
REMARK  3 active torsions:
REMARK  status: ('A' for Active; 'I' for Inactive)
REMARK    1  A    between atoms: O1_1  and  C1_2 
REMARK    2  A    between atoms: C5_6  and  C6_7 
REMARK    3  A    between atoms: C7_9  and  N2_10 
ROOT
HETATM    1  C6  UNL     1      25.584   0.996  52.761  1.00  0.00     0.162 A 
HETATM    2  N1  UNL     1      25.335   2.018  51.922  1.00  0.00    -0.208 NA
HETATM    3  C7  UNL     1      24.081   2.332  51.525  1.00  0.00     0.165 A 
HETATM    4  C12 UNL     1      23.029   1.575  52.001  1.00  0.00     0.153 A 
HETATM    5  O3  UNL     1      21.728   1.610  51.819  1.00  0.00    -0.285 OA
HETATM    6  C13 UNL     1      21.133   0.661  52.501  1.00  0.00     0.182 A 
HETATM    7  N3  UNL     1      19.819   0.311  52.623  1.00  0.00    -0.236 NA
HETATM    8  C14 UNL     1      19.484  -0.734  53.411  1.00  0.00     0.119 A 
HETATM    9  C15 UNL     1      20.401  -1.496  54.124  1.00  0.00     0.020 A 
HETATM   10  C16 UNL     1      21.716  -1.104  53.969  1.00  0.00     0.020 A 
HETATM   11  C17 UNL     1      22.118  -0.045  53.177  1.00  0.00     0.049 A 
HETATM   12  C18 UNL     1      23.330   0.536  52.859  1.00  0.00     0.111 A 
HETATM   13  N4  UNL     1      24.579   0.223  53.254  1.00  0.00    -0.225 NA
ENDROOT
BRANCH   1  14
HETATM   14  C5  UNL     1      26.963   0.718  53.144  1.00  0.00     0.014 A 
HETATM   15  C4  UNL     1      27.505  -0.529  52.909  1.00  0.00     0.015 A 
HETATM   16  C3  UNL     1      28.811  -0.744  53.290  1.00  0.00     0.004 A 
HETATM   17  C2  UNL     1      29.570   0.231  53.884  1.00  0.00     0.036 A 
HETATM   18  C1  UNL     1      28.995   1.472  54.106  1.00  0.00     0.066 A 
HETATM   19  C19 UNL     1      27.696   1.725  53.741  1.00  0.00     0.051 A 
BRANCH  18  20
HETATM   20  O1  UNL     1      29.837   2.409  54.716  1.00  0.00    -0.361 OA
HETATM   21  H1  UNL     1      30.427   2.120  55.494  1.00  0.00     0.217 HD
ENDBRANCH  18  20
ENDBRANCH   1  14
BRANCH   3  22
HETATM   22  N2  UNL     1      23.746   3.397  50.642  1.00  0.00    -0.359 N 
HETATM   23  C8  UNL     1      23.370   4.679  51.216  1.00  0.00     0.151 C 
HETATM   24  C9  UNL     1      22.320   5.405  50.436  1.00  0.00     0.187 C 
HETATM   25  O2  UNL     1      21.879   4.635  49.391  1.00  0.00    -0.388 OA
HETATM   26  C10 UNL     1      22.983   4.328  48.591  1.00  0.00     0.187 C 
HETATM   27  C11 UNL     1      23.785   3.182  49.207  1.00  0.00     0.151 C 
ENDBRANCH   3  22
TORSDOF 3
ENDMDL
MODEL 5
REMARK VINA RESULT:      -9.2      1.922      5.102
REMARK  3 active torsions:
REMARK  status: ('A' for Active; 'I' for Inactive)
REMARK    1  A    between atoms: O1_1  and  C1_2 
REMARK    2  A    between atoms: C5_6  and  C6_7 
REMARK    3  A    between atoms: C7_9  and  N2_10 
ROOT
HETATM    1  C6  UNL     1      26.364   1.494  51.781  1.00  0.00     0.162 A 
HETATM    2  N1  UNL     1      25.054   1.207  51.892  1.00  0.00    -0.208 NA
HETATM    3  C7  UNL     1      24.102   1.959  51.298  1.00  0.00     0.165 A 
HETATM    4  C12 UNL     1      24.493   3.056  50.556  1.00  0.00     0.153 A 
HETATM    5  O3  UNL     1      23.844   3.969  49.870  1.00  0.00    -0.285 OA
HETATM    6  C13 UNL     1      24.674   4.826  49.325  1.00  0.00     0.182 A 
HETATM    7  N3  UNL     1      24.467   5.924  48.541  1.00  0.00    -0.236 NA
HETATM    8  C14 UNL     1      25.531   6.639  48.112  1.00  0.00     0.119 A 
HETATM    9  C15 UNL     1      26.850   6.330  48.418  1.00  0.00     0.020 A 
HETATM   10  C16 UNL     1      27.007   5.212  49.214  1.00  0.00     0.020 A 
HETATM   11  C17 UNL     1      25.959   4.443  49.682  1.00  0.00     0.049 A 
HETATM   12  C18 UNL     1      25.847   3.313  50.468  1.00  0.00     0.111 A 
HETATM   13  N4  UNL     1      26.796   2.563  51.060  1.00  0.00    -0.225 NA
ENDROOT
BRANCH   1  14
HETATM   14  C5  UNL     1      27.335   0.636  52.450  1.00  0.00     0.014 A 
HETATM   15  C4  UNL     1      28.424   1.193  53.088  1.00  0.00     0.015 A 
HETATM   16  C3  UNL     1      29.313   0.342  53.705  1.00  0.00     0.004 A 
HETATM   17  C2  UNL     1      29.145  -1.019  53.702  1.00  0.00     0.036 A 
HETATM   18  C1  UNL     1      28.040  -1.547  53.052  1.00  0.00     0.066 A 
HETATM   19  C19 UNL     1      27.131  -0.731  52.425  1.00  0.00     0.051 A 
BRANCH  18  20
HETATM   20  O1  UNL     1      27.944  -2.943  53.097  1.00  0.00    -0.361 OA
HETATM   21  H1  UNL     1      28.139  -3.430  53.969  1.00  0.00     0.217 HD
ENDBRANCH  18  20
ENDBRANCH   1  14
BRANCH   3  22
HETATM   22  N2  UNL     1      22.702   1.714  51.374  1.00  0.00    -0.359 N 
HETATM   23  C8  UNL     1      22.025   1.198  50.195  1.00  0.00     0.151 C 
HETATM   24  C9  UNL     1      20.630   1.712  50.025  1.00  0.00     0.187 C 
HETATM   25  O2  UNL     1      20.341   2.642  50.990  1.00  0.00    -0.388 OA
HETATM   26  C10 UNL     1      20.508   2.032  52.236  1.00  0.00     0.187 C 
HETATM   27  C11 UNL     1      21.989   1.982  52.610  1.00  0.00     0.151 C 
ENDBRANCH   3  22
TORSDOF 3
ENDMDL
MODEL 6
REMARK VINA RESULT:      -9.0      1.603      5.736
REMARK  3 active torsions:
REMARK  status: ('A' for Active; 'I' for Inactive)
REMARK    1  A    between atoms: O1_1  and  C1_2 
REMARK    2  A    between atoms: C5_6  and  C6_7 
REMARK    3  A    between atoms: C7_9  and  N2_10 
ROOT
HETATM    1  C6  UNL     1      25.359   2.889  50.941  1.00  0.00     0.162 A 
HETATM    2  N1  UNL     1      26.250   2.136  51.613  1.00  0.00    -0.208 NA
HETATM    3  C7  UNL     1      25.871   1.092  52.382  1.00  0.00     0.165 A 
HETATM    4  C12 UNL     1      24.526   0.794  52.477  1.00  0.00     0.153 A 
HETATM    5  O3  UNL     1      23.840  -0.125  53.118  1.00  0.00    -0.285 OA
HETATM    6  C13 UNL     1      22.555   0.003  52.889  1.00  0.00     0.182 A 
HETATM    7  N3  UNL     1      21.475  -0.707  53.329  1.00  0.00    -0.236 NA
HETATM    8  C14 UNL     1      20.237  -0.345  52.924  1.00  0.00     0.119 A 
HETATM    9  C15 UNL     1      19.979   0.721  52.072  1.00  0.00     0.020 A 
HETATM   10  C16 UNL     1      21.102   1.407  51.655  1.00  0.00     0.020 A 
HETATM   11  C17 UNL     1      22.390   1.084  52.035  1.00  0.00     0.049 A 
HETATM   12  C18 UNL     1      23.647   1.592  51.771  1.00  0.00     0.111 A 
HETATM   13  N4  UNL     1      24.025   2.633  51.004  1.00  0.00    -0.225 NA
ENDROOT
BRANCH   1  14
HETATM   14  C5  UNL     1      25.843   4.000  50.131  1.00  0.00     0.014 A 
HETATM   15  C4  UNL     1      26.981   3.852  49.365  1.00  0.00     0.015 A 
HETATM   16  C3  UNL     1      27.399   4.930  48.618  1.00  0.00     0.004 A 
HETATM   17  C2  UNL     1      26.725   6.124  48.616  1.00  0.00     0.036 A 
HETATM   18  C1  UNL     1      25.586   6.240  49.397  1.00  0.00     0.066 A 
HETATM   19  C19 UNL     1      25.137   5.188  50.156  1.00  0.00     0.051 A 
BRANCH  18  20
HETATM   20  O1  UNL     1      24.959   7.491  49.338  1.00  0.00    -0.361 OA
HETATM   21  H1  UNL     1      25.282   8.181  48.663  1.00  0.00     0.217 HD
ENDBRANCH  18  20
ENDBRANCH   1  14
BRANCH   3  22
HETATM   22  N2  UNL     1      26.756   0.256  53.119  1.00  0.00    -0.359 N 
HETATM   23  C8  UNL     1      27.125   0.657  54.468  1.00  0.00     0.151 C 
HETATM   24  C9  UNL     1      28.530   0.305  54.840  1.00  0.00     0.187 C 
HETATM   25  O2  UNL     1      29.188  -0.243  53.769  1.00  0.00    -0.388 OA
HETATM   26  C10 UNL     1      28.473  -1.373  53.360  1.00  0.00     0.187 C 
HETATM   27  C11 UNL     1      27.267  -0.962  52.517  1.00  0.00     0.151 C 
ENDBRANCH   3  22
TORSDOF 3
ENDMDL
MODEL 7
REMARK VINA RESULT:      -9.0      1.954      5.907
REMARK  3 active torsions:
REMARK  status: ('A' for Active; 'I' for Inactive)
REMARK    1  A    between atoms: O1_1  and  C1_2 
REMARK    2  A    between atoms: C5_6  and  C6_7 
REMARK    3  A    between atoms: C7_9  and  N2_10 
ROOT
HETATM    1  C6  UNL     1      23.111   0.832  52.840  1.00  0.00     0.162 A 
HETATM    2  N1  UNL     1      23.096   1.921  52.049  1.00  0.00    -0.208 NA
HETATM    3  C7  UNL     1      24.220   2.615  51.763  1.00  0.00     0.165 A 
HETATM    4  C12 UNL     1      25.417   2.188  52.304  1.00  0.00     0.153 A 
HETATM    5  O3  UNL     1      26.655   2.620  52.229  1.00  0.00    -0.285 OA
HETATM    6  C13 UNL     1      27.460   1.862  52.934  1.00  0.00     0.182 A 
HETATM    7  N3  UNL     1      28.807   1.918  53.153  1.00  0.00    -0.236 NA
HETATM    8  C14 UNL     1      29.387   0.985  53.940  1.00  0.00     0.119 A 
HETATM    9  C15 UNL     1      28.697  -0.051  54.556  1.00  0.00     0.020 A 
HETATM   10  C16 UNL     1      27.339  -0.065  54.304  1.00  0.00     0.020 A 
HETATM   11  C17 UNL     1      26.691   0.861  53.510  1.00  0.00     0.049 A 
HETATM   12  C18 UNL     1      25.385   1.067  53.109  1.00  0.00     0.111 A 
HETATM   13  N4  UNL     1      24.265   0.374  53.394  1.00  0.00    -0.225 NA
ENDROOT
BRANCH   1  14
HETATM   14  C5  UNL     1      21.858   0.135  53.103  1.00  0.00     0.014 A 
HETATM   15  C4  UNL     1      21.821  -0.893  54.023  1.00  0.00     0.015 A 
HETATM   16  C3  UNL     1      20.615  -1.522  54.237  1.00  0.00     0.004 A 
HETATM   17  C2  UNL     1      19.473  -1.158  53.572  1.00  0.00     0.036 A 
HETATM   18  C1  UNL     1      19.544  -0.122  52.654  1.00  0.00     0.066 A 
HETATM   19  C19 UNL     1      20.728   0.529  52.413  1.00  0.00     0.051 A 
BRANCH  18  20
HETATM   20  O1  UNL     1      18.334   0.185  52.021  1.00  0.00    -0.361 OA
HETATM   21  H1  UNL     1      17.770   0.959  52.367  1.00  0.00     0.217 HD
ENDBRANCH  18  20
ENDBRANCH   1  14
BRANCH   3  22
HETATM   22  N2  UNL     1      24.278   3.773  50.937  1.00  0.00    -0.359 N 
HETATM   23  C8  UNL     1      24.836   3.641  49.600  1.00  0.00     0.151 C 
HETATM   24  C9  UNL     1      25.599   4.844  49.143  1.00  0.00     0.187 C 
HETATM   25  O2  UNL     1      25.676   5.774  50.148  1.00  0.00    -0.388 OA
HETATM   26  C10 UNL     1      24.371   6.112  50.518  1.00  0.00     0.187 C 
HETATM   27  C11 UNL     1      23.785   5.043  51.439  1.00  0.00     0.151 C 
ENDBRANCH   3  22
TORSDOF 3
ENDMDL
MODEL 8
REMARK VINA RESULT:      -8.8      1.975      7.040
REMARK  3 active torsions:
REMARK  status: ('A' for Active; 'I' for Inactive)
REMARK    1  A    between atoms: O1_1  and  C1_2 
REMARK    2  A    between atoms: C5_6  and  C6_7 
REMARK    3  A    between atoms: C7_9  and  N2_10 
ROOT
HETATM    1  C6  UNL     1      24.280   2.709  51.044  1.00  0.00     0.162 A 
HETATM    2  N1  UNL     1      23.273   1.956  51.524  1.00  0.00    -0.208 NA
HETATM    3  C7  UNL     1      23.461   1.045  52.505  1.00  0.00     0.165 A 
HETATM    4  C12 UNL     1      24.731   0.887  53.024  1.00  0.00     0.153 A 
HETATM    5  O3  UNL     1      25.243   0.114  53.955  1.00  0.00    -0.285 OA
HETATM    6  C13 UNL     1      26.529   0.335  54.094  1.00  0.00     0.182 A 
HETATM    7  N3  UNL     1      27.465  -0.217  54.920  1.00  0.00    -0.236 NA
HETATM    8  C14 UNL     1      28.745   0.211  54.846  1.00  0.00     0.119 A 
HETATM    9  C15 UNL     1      29.187   1.195  53.971  1.00  0.00     0.020 A 
HETATM   10  C16 UNL     1      28.204   1.722  53.158  1.00  0.00     0.020 A 
HETATM   11  C17 UNL     1      26.881   1.325  53.187  1.00  0.00     0.049 A 
HETATM   12  C18 UNL     1      25.735   1.679  52.502  1.00  0.00     0.111 A 
HETATM   13  N4  UNL     1      25.547   2.587  51.525  1.00  0.00    -0.225 NA
ENDROOT
BRANCH   1  14
HETATM   14  C5  UNL     1      24.000   3.671  49.986  1.00  0.00     0.014 A 
HETATM   15  C4  UNL     1      22.962   3.446  49.106  1.00  0.00     0.015 A 
HETATM   16  C3  UNL     1      22.738   4.383  48.122  1.00  0.00     0.004 A 
HETATM   17  C2  UNL     1      23.505   5.512  47.999  1.00  0.00     0.036 A 
HETATM   18  C1  UNL     1      24.540   5.709  48.900  1.00  0.00     0.066 A 
HETATM   19  C19 UNL     1      24.796   4.797  49.894  1.00  0.00     0.051 A 
BRANCH  18  20
HETATM   20  O1  UNL     1      25.274   6.885  48.703  1.00  0.00    -0.361 OA
HETATM   21  H1  UNL     1      25.713   7.340  49.501  1.00  0.00     0.217 HD
ENDBRANCH  18  20
ENDBRANCH   1  14
BRANCH   3  22
HETATM   22  N2  UNL     1      22.444   0.218  53.058  1.00  0.00    -0.359 N 
HETATM   23  C8  UNL     1      21.269   0.856  53.631  1.00  0.00     0.151 C 
HETATM   24  C9  UNL     1      20.716   0.143  54.824  1.00  0.00     0.187 C 
HETATM   25  O2  UNL     1      21.516  -0.918  55.163  1.00  0.00    -0.388 OA
HETATM   26  C10 UNL     1      21.594  -1.767  54.056  1.00  0.00     0.187 C 
HETATM   27  C11 UNL     1      22.599  -1.225  53.040  1.00  0.00     0.151 C 
ENDBRANCH   3  22
TORSDOF 3
ENDMDL
MODEL 9
REMARK VINA RESULT:      -8.7      2.095      2.652
REMARK  3 active torsions:
REMARK  status: ('A' for Active; 'I' for Inactive)
REMARK    1  A    between atoms: O1_1  and  C1_2 
REMARK    2  A    between atoms: C5_6  and  C6_7 
REMARK    3  A    between atoms: C7_9  and  N2_10 
ROOT
HETATM    1  C6  UNL     1      25.837   2.003  52.057  1.00  0.00     0.162 A 
HETATM    2  N1  UNL     1      25.960   3.207  51.468  1.00  0.00    -0.208 NA
HETATM    3  C7  UNL     1      24.920   3.818  50.859  1.00  0.00     0.165 A 
HETATM    4  C12 UNL     1      23.696   3.179  50.842  1.00  0.00     0.153 A 
HETATM    5  O3  UNL     1      22.516   3.485  50.351  1.00  0.00    -0.285 OA
HETATM    6  C13 UNL     1      21.645   2.535  50.595  1.00  0.00     0.182 A 
HETATM    7  N3  UNL     1      20.322   2.410  50.285  1.00  0.00    -0.236 NA
HETATM    8  C14 UNL     1      19.655   1.299  50.671  1.00  0.00     0.119 A 
HETATM    9  C15 UNL     1      20.233   0.252  51.377  1.00  0.00     0.020 A 
HETATM   10  C16 UNL     1      21.572   0.425  51.666  1.00  0.00     0.020 A 
HETATM   11  C17 UNL     1      22.304   1.537  51.298  1.00  0.00     0.049 A 
HETATM   12  C18 UNL     1      23.614   1.946  51.457  1.00  0.00     0.111 A 
HETATM   13  N4  UNL     1      24.651   1.337  52.065  1.00  0.00    -0.225 NA
ENDROOT
BRANCH   1  14
HETATM   14  C5  UNL     1      27.004   1.406  52.695  1.00  0.00     0.014 A 
HETATM   15  C4  UNL     1      27.243   0.054  52.568  1.00  0.00     0.015 A 
HETATM   16  C3  UNL     1      28.358  -0.464  53.189  1.00  0.00     0.004 A 
HETATM   17  C2  UNL     1      29.218   0.318  53.916  1.00  0.00     0.036 A 
HETATM   18  C1  UNL     1      28.949   1.673  54.024  1.00  0.00     0.066 A 
HETATM   19  C19 UNL     1      27.848   2.226  53.419  1.00  0.00     0.051 A 
BRANCH  18  20
HETATM   20  O1  UNL     1      29.876   2.397  54.783  1.00  0.00    -0.361 OA
HETATM   21  H1  UNL     1      30.829   2.050  54.873  1.00  0.00     0.217 HD
ENDBRANCH  18  20
ENDBRANCH   1  14
BRANCH   3  22
HETATM   22  N2  UNL     1      24.979   5.088  50.219  1.00  0.00    -0.359 N 
HETATM   23  C8  UNL     1      25.761   5.211  48.998  1.00  0.00     0.151 C 
HETATM   24  C9  UNL     1      26.445   6.533  48.851  1.00  0.00     0.187 C 
HETATM   25  O2  UNL     1      26.248   7.304  49.968  1.00  0.00    -0.388 OA
HETATM   26  C10 UNL     1      24.870   7.462  50.140  1.00  0.00     0.187 C 
HETATM   27  C11 UNL     1      24.268   6.217  50.790  1.00  0.00     0.151 C 
ENDBRANCH   3  22
TORSDOF 3
ENDMDL
