MODEL 1
REMARK VINA RESULT:      -8.1      0.000      0.000
REMARK  7 active torsions:
REMARK  status: ('A' for Active; 'I' for Inactive)
REMARK    1  A    between atoms: C2_2  and  C3_3 
REMARK    2  A    between atoms: C6_6  and  C7_7 
REMARK    3  A    between atoms: C7_7  and  C8_8 
REMARK    4  A    between atoms: C8_8  and  C9_9 
REMARK    5  A    between atoms: N1_16  and  N2_17 
REMARK    6  A    between atoms: N2_17  and  C15_18 
REMARK    7  A    between atoms: C15_18  and  N3_19 
ROOT
HETATM    1  C7  UNL     1      24.353   2.219  52.458  1.00  0.00     0.074 C 
HETATM    2  N1  UNL     1      24.191   3.317  51.899  1.00  0.00    -0.176 NA
ENDROOT
BRANCH   1   3
HETATM    3  C6  UNL     1      25.651   1.651  52.794  1.00  0.00    -0.009 A 
HETATM    4  C5  UNL     1      26.071   0.471  52.225  1.00  0.00     0.014 A 
HETATM    5  C4  UNL     1      27.248  -0.218  52.415  1.00  0.00     0.008 A 
HETATM    6  C3  UNL     1      28.144   0.343  53.298  1.00  0.00    -0.059 A 
HETATM    7  C17 UNL     1      27.831   1.528  53.930  1.00  0.00     0.008 A 
HETATM    8  C16 UNL     1      26.620   2.114  53.651  1.00  0.00     0.014 A 
BRANCH   6   9
HETATM    9  C2  UNL     1      29.432  -0.344  53.551  1.00  0.00     0.034 C 
HETATM   10  C1  UNL     1      29.242  -1.829  53.288  1.00  0.00     0.010 C 
ENDBRANCH   6   9
ENDBRANCH   1   3
BRANCH   1  11
HETATM   11  C8  UNL     1      23.287   1.298  52.888  1.00  0.00     0.085 C 
BRANCH  11  12
HETATM   12  C9  UNL     1      22.560   0.333  53.391  1.00  0.00    -0.044 A 
HETATM   13  C10 UNL     1      21.181   0.503  52.881  1.00  0.00     0.064 A 
HETATM   14  C11 UNL     1      20.284  -0.528  53.392  1.00  0.00    -0.022 A 
HETATM   15  C12 UNL     1      20.473  -1.547  54.193  1.00  0.00    -0.002 A 
HETATM   16  C13 UNL     1      21.844  -1.655  54.650  1.00  0.00     0.024 A 
HETATM   17  C14 UNL     1      22.764  -0.805  54.280  1.00  0.00     0.037 A 
HETATM   18 CL1  UNL     1      24.430  -0.953  54.849  1.00  0.00    -0.084 Cl
ENDBRANCH  11  12
ENDBRANCH   1  11
BRANCH   2  19
HETATM   19  N2  UNL     1      24.858   4.325  51.418  1.00  0.00    -0.253 N 
HETATM   20  H14 UNL     1      25.783   4.599  50.998  1.00  0.00     0.191 HD
BRANCH  19  21
HETATM   21  C15 UNL     1      24.042   5.491  51.491  1.00  0.00     0.185 C 
HETATM   22  S1  UNL     1      22.479   5.767  51.118  1.00  0.00    -0.040 SA
BRANCH  21  23
HETATM   23  N3  UNL     1      24.370   6.818  51.935  1.00  0.00    -0.375 N 
HETATM   24  H15 UNL     1      24.846   6.828  52.882  1.00  0.00     0.158 HD
HETATM   25  H16 UNL     1      24.305   7.806  51.653  1.00  0.00     0.158 HD
ENDBRANCH  21  23
ENDBRANCH  19  21
ENDBRANCH   2  19
TORSDOF 7
ENDMDL
MODEL 2
REMARK VINA RESULT:      -7.8      1.719      5.711
REMARK  7 active torsions:
REMARK  status: ('A' for Active; 'I' for Inactive)
REMARK    1  A    between atoms: C2_2  and  C3_3 
REMARK    2  A    between atoms: C6_6  and  C7_7 
REMARK    3  A    between atoms: C7_7  and  C8_8 
REMARK    4  A    between atoms: C8_8  and  C9_9 
REMARK    5  A    between atoms: N1_16  and  N2_17 
REMARK    6  A    between atoms: N2_17  and  C15_18 
REMARK    7  A    between atoms: C15_18  and  N3_19 
ROOT
HETATM    1  C7  UNL     1      25.172   1.520  52.741  1.00  0.00     0.074 C 
HETATM    2  N1  UNL     1      25.243   2.721  52.429  1.00  0.00    -0.176 NA
ENDROOT
BRANCH   1   3
HETATM    3  C6  UNL     1      23.928   0.806  52.990  1.00  0.00    -0.009 A 
HETATM    4  C5  UNL     1      23.855  -0.164  53.962  1.00  0.00     0.014 A 
HETATM    5  C4  UNL     1      22.783  -0.941  54.341  1.00  0.00     0.008 A 
HETATM    6  C3  UNL     1      21.608  -0.727  53.655  1.00  0.00    -0.059 A 
HETATM    7  C17 UNL     1      21.560   0.221  52.656  1.00  0.00     0.008 A 
HETATM    8  C16 UNL     1      22.705   0.930  52.377  1.00  0.00     0.014 A 
BRANCH   6   9
HETATM    9  C2  UNL     1      20.412  -1.529  54.009  1.00  0.00     0.034 C 
HETATM   10  C1  UNL     1      19.195  -0.880  53.370  1.00  0.00     0.010 C 
ENDBRANCH   6   9
ENDBRANCH   1   3
BRANCH   1  11
HETATM   11  C8  UNL     1      26.310   0.599  52.911  1.00  0.00     0.085 C 
BRANCH  11  12
HETATM   12  C9  UNL     1      27.468   0.025  53.117  1.00  0.00    -0.044 A 
HETATM   13  C10 UNL     1      27.304  -1.420  52.844  1.00  0.00     0.064 A 
HETATM   14  C11 UNL     1      28.547  -2.155  53.052  1.00  0.00    -0.022 A 
HETATM   15  C12 UNL     1      29.745  -1.778  53.423  1.00  0.00    -0.002 A 
HETATM   16  C13 UNL     1      29.835  -0.353  53.670  1.00  0.00     0.024 A 
HETATM   17  C14 UNL     1      28.805   0.438  53.528  1.00  0.00     0.037 A 
HETATM   18 CL1  UNL     1      28.935   2.173  53.834  1.00  0.00    -0.084 Cl
ENDBRANCH  11  12
ENDBRANCH   1  11
BRANCH   2  19
HETATM   19  N2  UNL     1      24.495   3.761  52.201  1.00  0.00    -0.253 N 
HETATM   20  H14 UNL     1      23.774   4.391  52.637  1.00  0.00     0.191 HD
BRANCH  19  21
HETATM   21  C15 UNL     1      24.730   4.210  50.870  1.00  0.00     0.185 C 
HETATM   22  S1  UNL     1      24.101   3.769  49.432  1.00  0.00    -0.040 SA
BRANCH  21  23
HETATM   23  N3  UNL     1      25.624   5.225  50.384  1.00  0.00    -0.375 N 
HETATM   24  H15 UNL     1      25.809   5.985  51.100  1.00  0.00     0.158 HD
HETATM   25  H16 UNL     1      26.173   5.492  49.555  1.00  0.00     0.158 HD
ENDBRANCH  21  23
ENDBRANCH  19  21
ENDBRANCH   2  19
TORSDOF 7
ENDMDL
MODEL 3
REMARK VINA RESULT:      -7.8      3.040      6.051
REMARK  7 active torsions:
REMARK  status: ('A' for Active; 'I' for Inactive)
REMARK    1  A    between atoms: C2_2  and  C3_3 
REMARK    2  A    between atoms: C6_6  and  C7_7 
REMARK    3  A    between atoms: C7_7  and  C8_8 
REMARK    4  A    between atoms: C8_8  and  C9_9 
REMARK    5  A    between atoms: N1_16  and  N2_17 
REMARK    6  A    between atoms: N2_17  and  C15_18 
REMARK    7  A    between atoms: C15_18  and  N3_19 
ROOT
HETATM    1  C7  UNL     1      24.895   0.896  52.349  1.00  0.00     0.074 C 
HETATM    2  N1  UNL     1      23.764   0.469  52.638  1.00  0.00    -0.176 NA
ENDROOT
BRANCH   1   3
HETATM    3  C6  UNL     1      25.146   2.091  51.556  1.00  0.00    -0.009 A 
HETATM    4  C5  UNL     1      26.179   2.130  50.649  1.00  0.00     0.014 A 
HETATM    5  C4  UNL     1      26.572   3.155  49.818  1.00  0.00     0.008 A 
HETATM    6  C3  UNL     1      25.834   4.316  49.897  1.00  0.00    -0.059 A 
HETATM    7  C17 UNL     1      24.773   4.394  50.773  1.00  0.00     0.008 A 
HETATM    8  C16 UNL     1      24.486   3.295  51.547  1.00  0.00     0.014 A 
BRANCH   6   9
HETATM    9  C2  UNL     1      26.201   5.462  49.031  1.00  0.00     0.034 C 
HETATM   10  C1  UNL     1      27.620   5.250  48.533  1.00  0.00     0.010 C 
ENDBRANCH   6   9
ENDBRANCH   1   3
BRANCH   1  11
HETATM   11  C8  UNL     1      26.179   0.292  52.748  1.00  0.00     0.085 C 
BRANCH  11  12
HETATM   12  C9  UNL     1      27.423   0.023  53.052  1.00  0.00    -0.044 A 
HETATM   13  C10 UNL     1      27.604  -1.441  52.931  1.00  0.00     0.064 A 
HETATM   14  C11 UNL     1      28.967  -1.846  53.257  1.00  0.00    -0.022 A 
HETATM   15  C12 UNL     1      30.027  -1.170  53.624  1.00  0.00    -0.002 A 
HETATM   16  C13 UNL     1      29.779   0.255  53.719  1.00  0.00     0.024 A 
HETATM   17  C14 UNL     1      28.608   0.771  53.459  1.00  0.00     0.037 A 
HETATM   18 CL1  UNL     1      28.325   2.510  53.581  1.00  0.00    -0.084 Cl
ENDBRANCH  11  12
ENDBRANCH   1  11
BRANCH   2  19
HETATM   19  N2  UNL     1      22.502   0.733  52.471  1.00  0.00    -0.253 N 
HETATM   20  H14 UNL     1      21.825   1.262  51.863  1.00  0.00     0.191 HD
BRANCH  19  21
HETATM   21  C15 UNL     1      21.757   0.071  53.489  1.00  0.00     0.185 C 
HETATM   22  S1  UNL     1      21.778  -1.461  54.049  1.00  0.00    -0.040 SA
BRANCH  21  23
HETATM   23  N3  UNL     1      20.730   0.577  54.357  1.00  0.00    -0.375 N 
HETATM   24  H15 UNL     1      19.952  -0.124  54.525  1.00  0.00     0.158 HD
HETATM   25  H16 UNL     1      20.465   1.412  54.898  1.00  0.00     0.158 HD
ENDBRANCH  21  23
ENDBRANCH  19  21
ENDBRANCH   2  19
TORSDOF 7
ENDMDL
MODEL 4
REMARK VINA RESULT:      -7.7      3.370      4.925
REMARK  7 active torsions:
REMARK  status: ('A' for Active; 'I' for Inactive)
REMARK    1  A    between atoms: C2_2  and  C3_3 
REMARK    2  A    between atoms: C6_6  and  C7_7 
REMARK    3  A    between atoms: C7_7  and  C8_8 
REMARK    4  A    between atoms: C8_8  and  C9_9 
REMARK    5  A    between atoms: N1_16  and  N2_17 
REMARK    6  A    between atoms: N2_17  and  C15_18 
REMARK    7  A    between atoms: C15_18  and  N3_19 
ROOT
HETATM    1  C7  UNL     1      25.605   1.007  53.442  1.00  0.00     0.074 C 
HETATM    2  N1  UNL     1      26.518   0.849  54.271  1.00  0.00    -0.176 NA
ENDROOT
BRANCH   1   3
HETATM    3  C6  UNL     1      25.666   1.931  52.318  1.00  0.00    -0.009 A 
HETATM    4  C5  UNL     1      24.795   2.992  52.232  1.00  0.00     0.014 A 
HETATM    5  C4  UNL     1      24.694   3.961  51.258  1.00  0.00     0.008 A 
HETATM    6  C3  UNL     1      25.588   3.866  50.214  1.00  0.00    -0.059 A 
HETATM    7  C17 UNL     1      26.510   2.841  50.192  1.00  0.00     0.008 A 
HETATM    8  C16 UNL     1      26.503   1.939  51.229  1.00  0.00     0.014 A 
BRANCH   6   9
HETATM    9  C2  UNL     1      25.538   4.876  49.130  1.00  0.00     0.034 C 
HETATM   10  C1  UNL     1      26.963   5.262  48.769  1.00  0.00     0.010 C 
ENDBRANCH   6   9
ENDBRANCH   1   3
BRANCH   1  11
HETATM   11  C8  UNL     1      24.312   0.301  53.429  1.00  0.00     0.085 C 
BRANCH  11  12
HETATM   12  C9  UNL     1      23.054  -0.058  53.383  1.00  0.00    -0.044 A 
HETATM   13  C10 UNL     1      22.777  -0.864  54.593  1.00  0.00     0.064 A 
HETATM   14  C11 UNL     1      21.392  -1.320  54.633  1.00  0.00    -0.022 A 
HETATM   15  C12 UNL     1      20.381  -1.150  53.818  1.00  0.00    -0.002 A 
HETATM   16  C13 UNL     1      20.722  -0.351  52.658  1.00  0.00     0.024 A 
HETATM   17  C14 UNL     1      21.924   0.129  52.480  1.00  0.00     0.037 A 
HETATM   18 CL1  UNL     1      22.321   1.101  51.060  1.00  0.00    -0.084 Cl
ENDBRANCH  11  12
ENDBRANCH   1  11
BRANCH   2  19
HETATM   19  N2  UNL     1      27.713   1.269  54.564  1.00  0.00    -0.253 N 
HETATM   20  H14 UNL     1      28.239   1.999  55.110  1.00  0.00     0.191 HD
BRANCH  19  21
HETATM   21  C15 UNL     1      28.664   0.447  53.895  1.00  0.00     0.185 C 
HETATM   22  S1  UNL     1      28.599  -1.086  53.341  1.00  0.00    -0.040 SA
BRANCH  21  23
HETATM   23  N3  UNL     1      30.014   0.738  53.493  1.00  0.00    -0.375 N 
HETATM   24  H15 UNL     1      30.518  -0.111  53.106  1.00  0.00     0.158 HD
HETATM   25  H16 UNL     1      30.697   1.506  53.444  1.00  0.00     0.158 HD
ENDBRANCH  21  23
ENDBRANCH  19  21
ENDBRANCH   2  19
TORSDOF 7
ENDMDL
MODEL 5
REMARK VINA RESULT:      -7.6      3.198      4.850
REMARK  7 active torsions:
REMARK  status: ('A' for Active; 'I' for Inactive)
REMARK    1  A    between atoms: C2_2  and  C3_3 
REMARK    2  A    between atoms: C6_6  and  C7_7 
REMARK    3  A    between atoms: C7_7  and  C8_8 
REMARK    4  A    between atoms: C8_8  and  C9_9 
REMARK    5  A    between atoms: N1_16  and  N2_17 
REMARK    6  A    between atoms: N2_17  and  C15_18 
REMARK    7  A    between atoms: C15_18  and  N3_19 
ROOT
HETATM    1  C7  UNL     1      24.845   1.275  52.931  1.00  0.00     0.074 C 
HETATM    2  N1  UNL     1      25.544   0.968  53.912  1.00  0.00    -0.176 NA
ENDROOT
BRANCH   1   3
HETATM    3  C6  UNL     1      25.241   2.230  51.906  1.00  0.00    -0.009 A 
HETATM    4  C5  UNL     1      24.496   3.362  51.673  1.00  0.00     0.014 A 
HETATM    5  C4  UNL     1      24.703   4.370  50.757  1.00  0.00     0.008 A 
HETATM    6  C3  UNL     1      25.812   4.238  49.952  1.00  0.00    -0.059 A 
HETATM    7  C17 UNL     1      26.635   3.141  50.093  1.00  0.00     0.008 A 
HETATM    8  C16 UNL     1      26.314   2.206  51.048  1.00  0.00     0.014 A 
BRANCH   6   9
HETATM    9  C2  UNL     1      26.098   5.285  48.942  1.00  0.00     0.034 C 
HETATM   10  C1  UNL     1      27.574   5.219  48.589  1.00  0.00     0.010 C 
ENDBRANCH   6   9
ENDBRANCH   1   3
BRANCH   1  11
HETATM   11  C8  UNL     1      23.508   0.741  52.616  1.00  0.00     0.085 C 
BRANCH  11  12
HETATM   12  C9  UNL     1      22.236   0.441  52.554  1.00  0.00    -0.044 A 
HETATM   13  C10 UNL     1      21.751   0.834  51.212  1.00  0.00     0.064 A 
HETATM   14  C11 UNL     1      20.332   0.544  51.043  1.00  0.00    -0.022 A 
HETATM   15  C12 UNL     1      19.437   0.012  51.837  1.00  0.00    -0.002 A 
HETATM   16  C13 UNL     1      19.980  -0.352  53.131  1.00  0.00     0.024 A 
HETATM   17  C14 UNL     1      21.235  -0.153  53.433  1.00  0.00     0.037 A 
HETATM   18 CL1  UNL     1      21.878  -0.603  55.016  1.00  0.00    -0.084 Cl
ENDBRANCH  11  12
ENDBRANCH   1  11
BRANCH   2  19
HETATM   19  N2  UNL     1      26.695   1.220  54.463  1.00  0.00    -0.253 N 
HETATM   20  H14 UNL     1      27.192   1.889  55.105  1.00  0.00     0.191 HD
BRANCH  19  21
HETATM   21  C15 UNL     1      27.632   0.235  54.038  1.00  0.00     0.185 C 
HETATM   22  S1  UNL     1      29.250   0.267  53.841  1.00  0.00    -0.040 SA
BRANCH  21  23
HETATM   23  N3  UNL     1      27.418  -1.130  53.642  1.00  0.00    -0.375 N 
HETATM   24  H15 UNL     1      26.411  -1.327  53.375  1.00  0.00     0.158 HD
HETATM   25  H16 UNL     1      27.912  -2.025  53.520  1.00  0.00     0.158 HD
ENDBRANCH  21  23
ENDBRANCH  19  21
ENDBRANCH   2  19
TORSDOF 7
ENDMDL
MODEL 6
REMARK VINA RESULT:      -7.5      2.964      5.517
REMARK  7 active torsions:
REMARK  status: ('A' for Active; 'I' for Inactive)
REMARK    1  A    between atoms: C2_2  and  C3_3 
REMARK    2  A    between atoms: C6_6  and  C7_7 
REMARK    3  A    between atoms: C7_7  and  C8_8 
REMARK    4  A    between atoms: C8_8  and  C9_9 
REMARK    5  A    between atoms: N1_16  and  N2_17 
REMARK    6  A    between atoms: N2_17  and  C15_18 
REMARK    7  A    between atoms: C15_18  and  N3_19 
ROOT
HETATM    1  C7  UNL     1      24.463   1.508  52.077  1.00  0.00     0.074 C 
HETATM    2  N1  UNL     1      23.348   1.077  52.416  1.00  0.00    -0.176 NA
ENDROOT
BRANCH   1   3
HETATM    3  C6  UNL     1      25.731   0.928  52.496  1.00  0.00    -0.009 A 
HETATM    4  C5  UNL     1      26.647   1.674  53.201  1.00  0.00     0.014 A 
HETATM    5  C4  UNL     1      27.887   1.309  53.678  1.00  0.00     0.008 A 
HETATM    6  C3  UNL     1      28.278   0.014  53.419  1.00  0.00    -0.059 A 
HETATM    7  C17 UNL     1      27.441  -0.828  52.719  1.00  0.00     0.008 A 
HETATM    8  C16 UNL     1      26.228  -0.337  52.299  1.00  0.00     0.014 A 
BRANCH   6   9
HETATM    9  C2  UNL     1      29.601  -0.448  53.903  1.00  0.00     0.034 C 
HETATM   10  C1  UNL     1      29.786  -1.896  53.479  1.00  0.00     0.010 C 
ENDBRANCH   6   9
ENDBRANCH   1   3
BRANCH   1  11
HETATM   11  C8  UNL     1      24.718   2.664  51.199  1.00  0.00     0.085 C 
BRANCH  11  12
HETATM   12  C9  UNL     1      25.213   3.672  50.527  1.00  0.00    -0.044 A 
HETATM   13  C10 UNL     1      26.421   3.186  49.822  1.00  0.00     0.064 A 
HETATM   14  C11 UNL     1      27.055   4.244  49.043  1.00  0.00    -0.022 A 
HETATM   15  C12 UNL     1      26.757   5.506  48.858  1.00  0.00    -0.002 A 
HETATM   16  C13 UNL     1      25.563   5.912  49.574  1.00  0.00     0.024 A 
HETATM   17  C14 UNL     1      24.885   5.077  50.315  1.00  0.00     0.037 A 
HETATM   18 CL1  UNL     1      23.433   5.591  51.180  1.00  0.00    -0.084 Cl
ENDBRANCH  11  12
ENDBRANCH   1  11
BRANCH   2  19
HETATM   19  N2  UNL     1      22.788   0.141  53.125  1.00  0.00    -0.253 N 
HETATM   20  H14 UNL     1      22.939  -0.826  53.511  1.00  0.00     0.191 HD
BRANCH  19  21
HETATM   21  C15 UNL     1      21.492   0.579  53.520  1.00  0.00     0.185 C 
HETATM   22  S1  UNL     1      20.407   1.578  52.824  1.00  0.00    -0.040 SA
BRANCH  21  23
HETATM   23  N3  UNL     1      20.728   0.257  54.694  1.00  0.00    -0.375 N 
HETATM   24  H15 UNL     1      21.196  -0.478  55.299  1.00  0.00     0.158 HD
HETATM   25  H16 UNL     1      19.852   0.491  55.181  1.00  0.00     0.158 HD
ENDBRANCH  21  23
ENDBRANCH  19  21
ENDBRANCH   2  19
TORSDOF 7
ENDMDL
MODEL 7
REMARK VINA RESULT:      -7.3      1.390      5.552
REMARK  7 active torsions:
REMARK  status: ('A' for Active; 'I' for Inactive)
REMARK    1  A    between atoms: C2_2  and  C3_3 
REMARK    2  A    between atoms: C6_6  and  C7_7 
REMARK    3  A    between atoms: C7_7  and  C8_8 
REMARK    4  A    between atoms: C8_8  and  C9_9 
REMARK    5  A    between atoms: N1_16  and  N2_17 
REMARK    6  A    between atoms: N2_17  and  C15_18 
REMARK    7  A    between atoms: C15_18  and  N3_19 
ROOT
HETATM    1  C7  UNL     1      24.789   2.210  51.410  1.00  0.00     0.074 C 
HETATM    2  N1  UNL     1      24.702   3.259  50.749  1.00  0.00    -0.176 NA
ENDROOT
BRANCH   1   3
HETATM    3  C6  UNL     1      23.650   1.419  51.851  1.00  0.00    -0.009 A 
HETATM    4  C5  UNL     1      23.584   0.934  53.136  1.00  0.00     0.014 A 
HETATM    5  C4  UNL     1      22.603   0.174  53.733  1.00  0.00     0.008 A 
HETATM    6  C3  UNL     1      21.526  -0.156  52.940  1.00  0.00    -0.059 A 
HETATM    7  C17 UNL     1      21.481   0.274  51.631  1.00  0.00     0.008 A 
HETATM    8  C16 UNL     1      22.529   1.028  51.159  1.00  0.00     0.014 A 
BRANCH   6   9
HETATM    9  C2  UNL     1      20.431  -0.973  53.516  1.00  0.00     0.034 C 
HETATM   10  C1  UNL     1      19.113  -0.479  52.943  1.00  0.00     0.010 C 
ENDBRANCH   6   9
ENDBRANCH   1   3
BRANCH   1  11
HETATM   11  C8  UNL     1      26.037   1.571  51.865  1.00  0.00     0.085 C 
BRANCH  11  12
HETATM   12  C9  UNL     1      27.033   1.048  52.533  1.00  0.00    -0.044 A 
HETATM   13  C10 UNL     1      27.862   2.163  53.043  1.00  0.00     0.064 A 
HETATM   14  C11 UNL     1      29.010   1.681  53.802  1.00  0.00    -0.022 A 
HETATM   15  C12 UNL     1      29.426   0.477  54.107  1.00  0.00    -0.002 A 
HETATM   16  C13 UNL     1      28.568  -0.564  53.580  1.00  0.00     0.024 A 
HETATM   17  C14 UNL     1      27.501  -0.290  52.877  1.00  0.00     0.037 A 
HETATM   18 CL1  UNL     1      26.467  -1.574  52.243  1.00  0.00    -0.084 Cl
ENDBRANCH  11  12
ENDBRANCH   1  11
BRANCH   2  19
HETATM   19  N2  UNL     1      23.826   4.054  50.208  1.00  0.00    -0.253 N 
HETATM   20  H14 UNL     1      23.219   4.183  49.359  1.00  0.00     0.191 HD
BRANCH  19  21
HETATM   21  C15 UNL     1      23.613   5.161  51.078  1.00  0.00     0.185 C 
HETATM   22  S1  UNL     1      24.196   6.685  51.084  1.00  0.00    -0.040 SA
BRANCH  21  23
HETATM   23  N3  UNL     1      22.790   5.267  52.251  1.00  0.00    -0.375 N 
HETATM   24  H15 UNL     1      22.333   6.219  52.347  1.00  0.00     0.158 HD
HETATM   25  H16 UNL     1      22.470   4.728  53.067  1.00  0.00     0.158 HD
ENDBRANCH  21  23
ENDBRANCH  19  21
ENDBRANCH   2  19
TORSDOF 7
ENDMDL
MODEL 8
REMARK VINA RESULT:      -7.2      1.504      2.011
REMARK  7 active torsions:
REMARK  status: ('A' for Active; 'I' for Inactive)
REMARK    1  A    between atoms: C2_2  and  C3_3 
REMARK    2  A    between atoms: C6_6  and  C7_7 
REMARK    3  A    between atoms: C7_7  and  C8_8 
REMARK    4  A    between atoms: C8_8  and  C9_9 
REMARK    5  A    between atoms: N1_16  and  N2_17 
REMARK    6  A    between atoms: N2_17  and  C15_18 
REMARK    7  A    between atoms: C15_18  and  N3_19 
ROOT
HETATM    1  C7  UNL     1      23.590   1.790  52.562  1.00  0.00     0.074 C 
HETATM    2  N1  UNL     1      23.606   3.027  52.436  1.00  0.00    -0.176 NA
ENDROOT
BRANCH   1   3
HETATM    3  C6  UNL     1      24.773   0.970  52.777  1.00  0.00    -0.009 A 
HETATM    4  C5  UNL     1      26.009   1.391  52.345  1.00  0.00     0.014 A 
HETATM    5  C4  UNL     1      27.231   0.764  52.451  1.00  0.00     0.008 A 
HETATM    6  C3  UNL     1      27.230  -0.463  53.078  1.00  0.00    -0.059 A 
HETATM    7  C17 UNL     1      26.047  -0.988  53.553  1.00  0.00     0.008 A 
HETATM    8  C16 UNL     1      24.896  -0.258  53.382  1.00  0.00     0.014 A 
BRANCH   6   9
HETATM    9  C2  UNL     1      28.509  -1.196  53.227  1.00  0.00     0.034 C 
HETATM   10  C1  UNL     1      29.591  -0.197  53.604  1.00  0.00     0.010 C 
ENDBRANCH   6   9
ENDBRANCH   1   3
BRANCH   1  11
HETATM   11  C8  UNL     1      22.394   0.929  52.526  1.00  0.00     0.085 C 
BRANCH  11  12
HETATM   12  C9  UNL     1      21.193   0.410  52.561  1.00  0.00    -0.044 A 
HETATM   13  C10 UNL     1      20.463   0.900  51.371  1.00  0.00     0.064 A 
HETATM   14  C11 UNL     1      19.101   0.380  51.320  1.00  0.00    -0.022 A 
HETATM   15  C12 UNL     1      18.430  -0.420  52.111  1.00  0.00    -0.002 A 
HETATM   16  C13 UNL     1      19.206  -0.863  53.252  1.00  0.00     0.024 A 
HETATM   17  C14 UNL     1      20.441  -0.481  53.437  1.00  0.00     0.037 A 
HETATM   18 CL1  UNL     1      21.371  -1.031  54.834  1.00  0.00    -0.084 Cl
ENDBRANCH  11  12
ENDBRANCH   1  11
BRANCH   2  19
HETATM   19  N2  UNL     1      24.421   4.040  52.421  1.00  0.00    -0.253 N 
HETATM   20  H14 UNL     1      25.083   4.596  53.021  1.00  0.00     0.191 HD
BRANCH  19  21
HETATM   21  C15 UNL     1      24.414   4.615  51.118  1.00  0.00     0.185 C 
HETATM   22  S1  UNL     1      23.875   4.072  49.678  1.00  0.00    -0.040 SA
BRANCH  21  23
HETATM   23  N3  UNL     1      24.898   5.893  50.672  1.00  0.00    -0.375 N 
HETATM   24  H15 UNL     1      25.797   6.182  51.153  1.00  0.00     0.158 HD
HETATM   25  H16 UNL     1      24.676   6.662  50.026  1.00  0.00     0.158 HD
ENDBRANCH  21  23
ENDBRANCH  19  21
ENDBRANCH   2  19
TORSDOF 7
ENDMDL
MODEL 9
REMARK VINA RESULT:      -7.1      2.888      5.898
REMARK  7 active torsions:
REMARK  status: ('A' for Active; 'I' for Inactive)
REMARK    1  A    between atoms: C2_2  and  C3_3 
REMARK    2  A    between atoms: C6_6  and  C7_7 
REMARK    3  A    between atoms: C7_7  and  C8_8 
REMARK    4  A    between atoms: C8_8  and  C9_9 
REMARK    5  A    between atoms: N1_16  and  N2_17 
REMARK    6  A    between atoms: N2_17  and  C15_18 
REMARK    7  A    between atoms: C15_18  and  N3_19 
ROOT
HETATM    1  C7  UNL     1      24.817   2.064  51.254  1.00  0.00     0.074 C 
HETATM    2  N1  UNL     1      23.624   1.727  51.172  1.00  0.00    -0.176 NA
ENDROOT
BRANCH   1   3
HETATM    3  C6  UNL     1      25.419   3.151  50.495  1.00  0.00    -0.009 A 
HETATM    4  C5  UNL     1      24.872   4.413  50.517  1.00  0.00     0.014 A 
HETATM    5  C4  UNL     1      25.289   5.556  49.872  1.00  0.00     0.008 A 
HETATM    6  C3  UNL     1      26.415   5.433  49.089  1.00  0.00    -0.059 A 
HETATM    7  C17 UNL     1      27.051   4.214  48.989  1.00  0.00     0.008 A 
HETATM    8  C16 UNL     1      26.530   3.150  49.686  1.00  0.00     0.014 A 
BRANCH   6   9
HETATM    9  C2  UNL     1      26.922   6.624  48.365  1.00  0.00     0.034 C 
HETATM   10  C1  UNL     1      25.730   7.406  47.839  1.00  0.00     0.010 C 
ENDBRANCH   6   9
ENDBRANCH   1   3
BRANCH   1  11
HETATM   11  C8  UNL     1      25.836   1.447  52.122  1.00  0.00     0.085 C 
BRANCH  11  12
HETATM   12  C9  UNL     1      26.925   0.992  52.687  1.00  0.00    -0.044 A 
HETATM   13  C10 UNL     1      27.694   2.158  53.176  1.00  0.00     0.064 A 
HETATM   14  C11 UNL     1      28.937   1.754  53.822  1.00  0.00    -0.022 A 
HETATM   15  C12 UNL     1      29.479   0.582  54.043  1.00  0.00    -0.002 A 
HETATM   16  C13 UNL     1      28.673  -0.513  53.542  1.00  0.00     0.024 A 
HETATM   17  C14 UNL     1      27.532  -0.310  52.938  1.00  0.00     0.037 A 
HETATM   18 CL1  UNL     1      26.564  -1.658  52.334  1.00  0.00    -0.084 Cl
ENDBRANCH  11  12
ENDBRANCH   1  11
BRANCH   2  19
HETATM   19  N2  UNL     1      22.518   2.032  50.559  1.00  0.00    -0.253 N 
HETATM   20  H14 UNL     1      22.033   1.989  49.626  1.00  0.00     0.191 HD
BRANCH  19  21
HETATM   21  C15 UNL     1      21.640   2.664  51.485  1.00  0.00     0.185 C 
HETATM   22  S1  UNL     1      20.581   2.076  52.576  1.00  0.00    -0.040 SA
BRANCH  21  23
HETATM   23  N3  UNL     1      21.421   4.062  51.741  1.00  0.00    -0.375 N 
HETATM   24  H15 UNL     1      21.812   4.685  50.977  1.00  0.00     0.158 HD
HETATM   25  H16 UNL     1      21.005   4.704  52.429  1.00  0.00     0.158 HD
ENDBRANCH  21  23
ENDBRANCH  19  21
ENDBRANCH   2  19
TORSDOF 7
ENDMDL
