MODEL 1
REMARK VINA RESULT:      -8.6      0.000      0.000
REMARK  5 active torsions:
REMARK  status: ('A' for Active; 'I' for Inactive)
REMARK    1  A    between atoms: C3_3  and  N1_4 
REMARK    2  A    between atoms: N1_4  and  C4_5 
REMARK    3  A    between atoms: C5_6  and  O1_7 
REMARK    4  A    between atoms: O1_7  and  C6_8 
REMARK    5  A    between atoms: C6_8  and  C7_9 
ROOT
HETATM    1  C4  UNL     1      25.999   2.806  50.620  1.00  0.00     0.063 A 
HETATM    2  C5  UNL     1      24.782   3.192  50.967  1.00  0.00     0.077 A 
HETATM    3  C13 UNL     1      24.427   4.488  50.346  1.00  0.00     0.100 A 
HETATM    4  C14 UNL     1      25.664   4.803  49.564  1.00  0.00    -0.075 A 
HETATM    5  C15 UNL     1      25.732   6.059  48.765  1.00  0.00     0.044 C 
HETATM    6  C16 UNL     1      26.556   3.839  49.725  1.00  0.00     0.035 A 
ENDROOT
BRANCH   1   7
HETATM    7  N1  UNL     1      26.774   1.659  50.949  1.00  0.00    -0.338 N 
HETATM    8  H3  UNL     1      26.909   0.898  50.228  1.00  0.00     0.167 HD
BRANCH   7   9
HETATM    9  C3  UNL     1      27.370   1.511  52.219  1.00  0.00     0.138 A 
HETATM   10  C2  UNL     1      27.158   0.356  53.057  1.00  0.00     0.018 A 
HETATM   11  C1  UNL     1      26.375  -0.596  52.612  1.00  0.00     0.026 C 
HETATM   12  C18 UNL     1      27.728   0.096  54.397  1.00  0.00     0.241 A 
HETATM   13  N3  UNL     1      28.555   1.208  54.752  1.00  0.00    -0.257 NA
HETATM   14 CL1  UNL     1      26.370  -0.143  55.525  1.00  0.00    -0.095 Cl
HETATM   15  C17 UNL     1      28.707   2.214  53.962  1.00  0.00     0.231 A 
HETATM   16  N2  UNL     1      28.145   2.438  52.676  1.00  0.00    -0.224 NA
ENDBRANCH   7   9
ENDBRANCH   1   7
BRANCH   2  17
HETATM   17  O1  UNL     1      23.784   2.669  51.761  1.00  0.00    -0.348 OA
BRANCH  17  18
HETATM   18  C6  UNL     1      23.152   1.424  51.445  1.00  0.00     0.214 C 
BRANCH  18  19
HETATM   19  C7  UNL     1      22.468   0.826  52.602  1.00  0.00    -0.031 A 
HETATM   20  C8  UNL     1      21.166   1.070  52.998  1.00  0.00     0.009 A 
HETATM   21  C9  UNL     1      20.631   0.445  54.108  1.00  0.00     0.004 A 
HETATM   22  C10 UNL     1      21.353  -0.448  54.881  1.00  0.00     0.042 A 
HETATM   23  C11 UNL     1      22.655  -0.700  54.496  1.00  0.00     0.117 A 
HETATM   24  F1  UNL     1      23.405  -1.563  55.212  1.00  0.00    -0.206 F 
HETATM   25  C12 UNL     1      23.180  -0.067  53.379  1.00  0.00     0.051 A 
ENDBRANCH  18  19
ENDBRANCH  17  18
ENDBRANCH   2  17
TORSDOF 5
ENDMDL
MODEL 2
REMARK VINA RESULT:      -8.4      2.415      4.802
REMARK  5 active torsions:
REMARK  status: ('A' for Active; 'I' for Inactive)
REMARK    1  A    between atoms: C3_3  and  N1_4 
REMARK    2  A    between atoms: N1_4  and  C4_5 
REMARK    3  A    between atoms: C5_6  and  O1_7 
REMARK    4  A    between atoms: O1_7  and  C6_8 
REMARK    5  A    between atoms: C6_8  and  C7_9 
ROOT
HETATM    1  C4  UNL     1      27.048   1.107  53.133  1.00  0.00     0.063 A 
HETATM    2  C5  UNL     1      26.462  -0.079  53.122  1.00  0.00     0.077 A 
HETATM    3  C13 UNL     1      27.444  -1.170  53.312  1.00  0.00     0.100 A 
HETATM    4  C14 UNL     1      28.728  -0.410  53.437  1.00  0.00    -0.075 A 
HETATM    5  C15 UNL     1      30.005  -1.148  53.646  1.00  0.00     0.044 C 
HETATM    6  C16 UNL     1      28.494   0.889  53.334  1.00  0.00     0.035 A 
ENDROOT
BRANCH   1   7
HETATM    7  N1  UNL     1      26.543   2.430  52.993  1.00  0.00    -0.338 N 
HETATM    8  H3  UNL     1      26.529   3.073  53.831  1.00  0.00     0.167 HD
BRANCH   7   9
HETATM    9  C3  UNL     1      26.058   2.907  51.757  1.00  0.00     0.138 A 
HETATM   10  C2  UNL     1      24.676   3.260  51.538  1.00  0.00     0.018 A 
HETATM   11  C1  UNL     1      23.838   3.129  52.537  1.00  0.00     0.026 C 
HETATM   12  C18 UNL     1      24.060   3.767  50.293  1.00  0.00     0.241 A 
HETATM   13  N3  UNL     1      25.083   3.859  49.296  1.00  0.00    -0.257 NA
HETATM   14 CL1  UNL     1      22.753   2.645  49.839  1.00  0.00    -0.095 Cl
HETATM   15  C17 UNL     1      26.302   3.530  49.550  1.00  0.00     0.231 A 
HETATM   16  N2  UNL     1      26.867   3.043  50.760  1.00  0.00    -0.224 NA
ENDBRANCH   7   9
ENDBRANCH   1   7
BRANCH   2  17
HETATM   17  O1  UNL     1      25.165  -0.524  52.978  1.00  0.00    -0.348 OA
BRANCH  17  18
HETATM   18  C6  UNL     1      24.280  -0.625  54.100  1.00  0.00     0.214 C 
BRANCH  18  19
HETATM   19  C7  UNL     1      22.880  -0.352  53.743  1.00  0.00    -0.031 A 
HETATM   20  C8  UNL     1      21.828  -0.188  54.625  1.00  0.00     0.009 A 
HETATM   21  C9  UNL     1      20.550   0.067  54.169  1.00  0.00     0.004 A 
HETATM   22  C10 UNL     1      20.246   0.172  52.822  1.00  0.00     0.042 A 
HETATM   23  C11 UNL     1      21.288   0.010  51.931  1.00  0.00     0.117 A 
HETATM   24  F1  UNL     1      21.050   0.102  50.606  1.00  0.00    -0.206 F 
HETATM   25  C12 UNL     1      22.568  -0.245  52.402  1.00  0.00     0.051 A 
ENDBRANCH  18  19
ENDBRANCH  17  18
ENDBRANCH   2  17
TORSDOF 5
ENDMDL
MODEL 3
REMARK VINA RESULT:      -8.3      1.978      2.599
REMARK  5 active torsions:
REMARK  status: ('A' for Active; 'I' for Inactive)
REMARK    1  A    between atoms: C3_3  and  N1_4 
REMARK    2  A    between atoms: N1_4  and  C4_5 
REMARK    3  A    between atoms: C5_6  and  O1_7 
REMARK    4  A    between atoms: O1_7  and  C6_8 
REMARK    5  A    between atoms: C6_8  and  C7_9 
ROOT
HETATM    1  C4  UNL     1      25.611   2.138  51.840  1.00  0.00     0.063 A 
HETATM    2  C5  UNL     1      24.539   2.263  51.076  1.00  0.00     0.077 A 
HETATM    3  C13 UNL     1      24.819   3.092  49.881  1.00  0.00     0.100 A 
HETATM    4  C14 UNL     1      26.262   3.438  50.079  1.00  0.00    -0.075 A 
HETATM    5  C15 UNL     1      26.962   4.286  49.073  1.00  0.00     0.044 C 
HETATM    6  C16 UNL     1      26.707   2.890  51.198  1.00  0.00     0.035 A 
ENDROOT
BRANCH   1   7
HETATM    7  N1  UNL     1      25.843   1.455  53.066  1.00  0.00    -0.338 N 
HETATM    8  H3  UNL     1      25.411   1.824  53.957  1.00  0.00     0.167 HD
BRANCH   7   9
HETATM    9  C3  UNL     1      26.639   0.292  53.123  1.00  0.00     0.138 A 
HETATM   10  C2  UNL     1      27.913   0.243  53.799  1.00  0.00     0.018 A 
HETATM   11  C1  UNL     1      28.344   1.332  54.387  1.00  0.00     0.026 C 
HETATM   12  C18 UNL     1      28.826  -0.914  53.923  1.00  0.00     0.241 A 
HETATM   13  N3  UNL     1      28.233  -2.024  53.241  1.00  0.00    -0.257 NA
HETATM   14 CL1  UNL     1      30.397  -0.439  53.230  1.00  0.00    -0.095 Cl
HETATM   15  C17 UNL     1      27.091  -1.921  52.654  1.00  0.00     0.231 A 
HETATM   16  N2  UNL     1      26.233  -0.792  52.551  1.00  0.00    -0.224 NA
ENDBRANCH   7   9
ENDBRANCH   1   7
BRANCH   2  17
HETATM   17  O1  UNL     1      23.240   1.804  51.136  1.00  0.00    -0.348 OA
BRANCH  17  18
HETATM   18  C6  UNL     1      22.406   2.065  52.270  1.00  0.00     0.214 C 
BRANCH  18  19
HETATM   19  C7  UNL     1      21.986   0.835  52.959  1.00  0.00    -0.031 A 
HETATM   20  C8  UNL     1      22.813  -0.067  53.600  1.00  0.00     0.009 A 
HETATM   21  C9  UNL     1      22.299  -1.192  54.214  1.00  0.00     0.004 A 
HETATM   22  C10 UNL     1      20.945  -1.482  54.226  1.00  0.00     0.042 A 
HETATM   23  C11 UNL     1      20.108  -0.588  53.589  1.00  0.00     0.117 A 
HETATM   24  F1  UNL     1      18.779  -0.820  53.570  1.00  0.00    -0.206 F 
HETATM   25  C12 UNL     1      20.637   0.539  52.976  1.00  0.00     0.051 A 
ENDBRANCH  18  19
ENDBRANCH  17  18
ENDBRANCH   2  17
TORSDOF 5
ENDMDL
MODEL 4
REMARK VINA RESULT:      -8.1      3.027      6.194
REMARK  5 active torsions:
REMARK  status: ('A' for Active; 'I' for Inactive)
REMARK    1  A    between atoms: C3_3  and  N1_4 
REMARK    2  A    between atoms: N1_4  and  C4_5 
REMARK    3  A    between atoms: C5_6  and  O1_7 
REMARK    4  A    between atoms: O1_7  and  C6_8 
REMARK    5  A    between atoms: C6_8  and  C7_9 
ROOT
HETATM    1  C4  UNL     1      22.592   1.494  52.213  1.00  0.00     0.063 A 
HETATM    2  C5  UNL     1      23.761   0.898  52.387  1.00  0.00     0.077 A 
HETATM    3  C13 UNL     1      23.678  -0.166  53.412  1.00  0.00     0.100 A 
HETATM    4  C14 UNL     1      22.239  -0.092  53.818  1.00  0.00    -0.075 A 
HETATM    5  C15 UNL     1      21.718  -1.020  54.861  1.00  0.00     0.044 C 
HETATM    6  C16 UNL     1      21.626   0.858  53.130  1.00  0.00     0.035 A 
ENDROOT
BRANCH   1   7
HETATM    7  N1  UNL     1      22.170   2.552  51.360  1.00  0.00    -0.338 N 
HETATM    8  H3  UNL     1      21.227   2.493  50.887  1.00  0.00     0.167 HD
BRANCH   7   9
HETATM    9  C3  UNL     1      22.982   3.682  51.129  1.00  0.00     0.138 A 
HETATM   10  C2  UNL     1      23.761   3.857  49.927  1.00  0.00     0.018 A 
HETATM   11  C1  UNL     1      23.707   2.921  49.012  1.00  0.00     0.026 C 
HETATM   12  C18 UNL     1      24.642   4.994  49.580  1.00  0.00     0.241 A 
HETATM   13  N3  UNL     1      24.604   5.932  50.660  1.00  0.00    -0.257 NA
HETATM   14 CL1  UNL     1      26.274   4.343  49.287  1.00  0.00    -0.095 Cl
HETATM   15  C17 UNL     1      23.889   5.721  51.711  1.00  0.00     0.231 A 
HETATM   16  N2  UNL     1      23.050   4.616  52.018  1.00  0.00    -0.224 NA
ENDBRANCH   7   9
ENDBRANCH   1   7
BRANCH   2  17
HETATM   17  O1  UNL     1      25.017   1.039  51.838  1.00  0.00    -0.348 OA
BRANCH  17  18
HETATM   18  C6  UNL     1      26.053   1.760  52.515  1.00  0.00     0.214 C 
BRANCH  18  19
HETATM   19  C7  UNL     1      27.202   0.909  52.860  1.00  0.00    -0.031 A 
HETATM   20  C8  UNL     1      28.416   1.340  53.361  1.00  0.00     0.009 A 
HETATM   21  C9  UNL     1      29.425   0.442  53.649  1.00  0.00     0.004 A 
HETATM   22  C10 UNL     1      29.288  -0.923  53.455  1.00  0.00     0.042 A 
HETATM   23  C11 UNL     1      28.079  -1.364  52.954  1.00  0.00     0.117 A 
HETATM   24  F1  UNL     1      27.889  -2.684  52.746  1.00  0.00    -0.206 F 
HETATM   25  C12 UNL     1      27.073  -0.453  52.670  1.00  0.00     0.051 A 
ENDBRANCH  18  19
ENDBRANCH  17  18
ENDBRANCH   2  17
TORSDOF 5
ENDMDL
MODEL 5
REMARK VINA RESULT:      -8.1      3.217      6.360
REMARK  5 active torsions:
REMARK  status: ('A' for Active; 'I' for Inactive)
REMARK    1  A    between atoms: C3_3  and  N1_4 
REMARK    2  A    between atoms: N1_4  and  C4_5 
REMARK    3  A    between atoms: C5_6  and  O1_7 
REMARK    4  A    between atoms: O1_7  and  C6_8 
REMARK    5  A    between atoms: C6_8  and  C7_9 
ROOT
HETATM    1  C4  UNL     1      22.341   1.452  52.688  1.00  0.00     0.063 A 
HETATM    2  C5  UNL     1      23.570   1.066  52.993  1.00  0.00     0.077 A 
HETATM    3  C13 UNL     1      23.566  -0.210  53.744  1.00  0.00     0.100 A 
HETATM    4  C14 UNL     1      22.102  -0.512  53.831  1.00  0.00    -0.075 A 
HETATM    5  C15 UNL     1      21.643  -1.746  54.528  1.00  0.00     0.044 C 
HETATM    6  C16 UNL     1      21.410   0.440  53.226  1.00  0.00     0.035 A 
ENDROOT
BRANCH   1   7
HETATM    7  N1  UNL     1      21.834   2.583  51.990  1.00  0.00    -0.338 N 
HETATM    8  H3  UNL     1      20.799   2.648  51.788  1.00  0.00     0.167 HD
BRANCH   7   9
HETATM    9  C3  UNL     1      22.683   3.624  51.559  1.00  0.00     0.138 A 
HETATM   10  C2  UNL     1      23.370   3.605  50.291  1.00  0.00     0.018 A 
HETATM   11  C1  UNL     1      23.194   2.569  49.507  1.00  0.00     0.026 C 
HETATM   12  C18 UNL     1      24.277   4.635  49.740  1.00  0.00     0.241 A 
HETATM   13  N3  UNL     1      24.375   5.698  50.693  1.00  0.00    -0.257 NA
HETATM   14 CL1  UNL     1      25.845   3.855  49.412  1.00  0.00    -0.095 Cl
HETATM   15  C17 UNL     1      23.737   5.661  51.811  1.00  0.00     0.231 A 
HETATM   16  N2  UNL     1      22.869   4.654  52.316  1.00  0.00    -0.224 NA
ENDBRANCH   7   9
ENDBRANCH   1   7
BRANCH   2  17
HETATM   17  O1  UNL     1      24.833   1.572  52.772  1.00  0.00    -0.348 OA
BRANCH  17  18
HETATM   18  C6  UNL     1      25.776   0.893  51.936  1.00  0.00     0.214 C 
BRANCH  18  19
HETATM   19  C7  UNL     1      27.031   0.580  52.637  1.00  0.00    -0.031 A 
HETATM   20  C8  UNL     1      27.587  -0.676  52.797  1.00  0.00     0.009 A 
HETATM   21  C9  UNL     1      28.777  -0.845  53.477  1.00  0.00     0.004 A 
HETATM   22  C10 UNL     1      29.475   0.213  54.034  1.00  0.00     0.042 A 
HETATM   23  C11 UNL     1      28.930   1.472  53.881  1.00  0.00     0.117 A 
HETATM   24  F1  UNL     1      29.567   2.541  54.402  1.00  0.00    -0.206 F 
HETATM   25  C12 UNL     1      27.734   1.630  53.194  1.00  0.00     0.051 A 
ENDBRANCH  18  19
ENDBRANCH  17  18
ENDBRANCH   2  17
TORSDOF 5
ENDMDL
MODEL 6
REMARK VINA RESULT:      -8.1      2.370      5.297
REMARK  5 active torsions:
REMARK  status: ('A' for Active; 'I' for Inactive)
REMARK    1  A    between atoms: C3_3  and  N1_4 
REMARK    2  A    between atoms: N1_4  and  C4_5 
REMARK    3  A    between atoms: C5_6  and  O1_7 
REMARK    4  A    between atoms: O1_7  and  C6_8 
REMARK    5  A    between atoms: C6_8  and  C7_9 
ROOT
HETATM    1  C4  UNL     1      23.976   0.842  53.231  1.00  0.00     0.063 A 
HETATM    2  C5  UNL     1      23.038   0.991  52.310  1.00  0.00     0.077 A 
HETATM    3  C13 UNL     1      21.927   0.032  52.508  1.00  0.00     0.100 A 
HETATM    4  C14 UNL     1      22.380  -0.717  53.722  1.00  0.00    -0.075 A 
HETATM    5  C15 UNL     1      21.529  -1.807  54.277  1.00  0.00     0.044 C 
HETATM    6  C16 UNL     1      23.550  -0.250  54.129  1.00  0.00     0.035 A 
ENDROOT
BRANCH   1   7
HETATM    7  N1  UNL     1      25.210   1.509  53.463  1.00  0.00    -0.338 N 
HETATM    8  H3  UNL     1      25.254   2.563  53.390  1.00  0.00     0.167 HD
BRANCH   7   9
HETATM    9  C3  UNL     1      26.384   0.797  53.789  1.00  0.00     0.138 A 
HETATM   10  C2  UNL     1      27.066  -0.065  52.855  1.00  0.00     0.018 A 
HETATM   11  C1  UNL     1      26.568  -0.187  51.648  1.00  0.00     0.026 C 
HETATM   12  C18 UNL     1      28.295  -0.854  53.086  1.00  0.00     0.241 A 
HETATM   13  N3  UNL     1      28.724  -0.625  54.432  1.00  0.00    -0.257 NA
HETATM   14 CL1  UNL     1      27.908  -2.563  52.765  1.00  0.00    -0.095 Cl
HETATM   15  C17 UNL     1      28.074   0.156  55.222  1.00  0.00     0.231 A 
HETATM   16  N2  UNL     1      26.891   0.904  54.972  1.00  0.00    -0.224 NA
ENDBRANCH   7   9
ENDBRANCH   1   7
BRANCH   2  17
HETATM   17  O1  UNL     1      22.862   1.823  51.225  1.00  0.00    -0.348 OA
BRANCH  17  18
HETATM   18  C6  UNL     1      22.858   3.247  51.368  1.00  0.00     0.214 C 
BRANCH  18  19
HETATM   19  C7  UNL     1      23.980   3.890  50.667  1.00  0.00    -0.031 A 
HETATM   20  C8  UNL     1      24.128   5.244  50.429  1.00  0.00     0.009 A 
HETATM   21  C9  UNL     1      25.232   5.731  49.757  1.00  0.00     0.004 A 
HETATM   22  C10 UNL     1      26.243   4.909  49.287  1.00  0.00     0.042 A 
HETATM   23  C11 UNL     1      26.106   3.555  49.520  1.00  0.00     0.117 A 
HETATM   24  F1  UNL     1      27.061   2.707  49.085  1.00  0.00    -0.206 F 
HETATM   25  C12 UNL     1      24.993   3.077  50.196  1.00  0.00     0.051 A 
ENDBRANCH  18  19
ENDBRANCH  17  18
ENDBRANCH   2  17
TORSDOF 5
ENDMDL
MODEL 7
REMARK VINA RESULT:      -7.7      3.871      7.199
REMARK  5 active torsions:
REMARK  status: ('A' for Active; 'I' for Inactive)
REMARK    1  A    between atoms: C3_3  and  N1_4 
REMARK    2  A    between atoms: N1_4  and  C4_5 
REMARK    3  A    between atoms: C5_6  and  O1_7 
REMARK    4  A    between atoms: O1_7  and  C6_8 
REMARK    5  A    between atoms: C6_8  and  C7_9 
ROOT
HETATM    1  C4  UNL     1      25.288   1.819  52.568  1.00  0.00     0.063 A 
HETATM    2  C5  UNL     1      26.325   1.970  51.761  1.00  0.00     0.077 A 
HETATM    3  C13 UNL     1      27.117   0.723  51.659  1.00  0.00     0.100 A 
HETATM    4  C14 UNL     1      26.356  -0.200  52.559  1.00  0.00    -0.075 A 
HETATM    5  C15 UNL     1      26.827  -1.601  52.748  1.00  0.00     0.044 C 
HETATM    6  C16 UNL     1      25.314   0.432  53.074  1.00  0.00     0.035 A 
ENDROOT
BRANCH   1   7
HETATM    7  N1  UNL     1      24.255   2.705  52.981  1.00  0.00    -0.338 N 
HETATM    8  H3  UNL     1      23.967   2.732  53.998  1.00  0.00     0.167 HD
BRANCH   7   9
HETATM    9  C3  UNL     1      23.601   3.554  52.063  1.00  0.00     0.138 A 
HETATM   10  C2  UNL     1      22.854   3.062  50.931  1.00  0.00     0.018 A 
HETATM   11  C1  UNL     1      22.783   1.765  50.753  1.00  0.00     0.026 C 
HETATM   12  C18 UNL     1      22.133   3.854  49.912  1.00  0.00     0.241 A 
HETATM   13  N3  UNL     1      22.294   5.240  50.229  1.00  0.00    -0.257 NA
HETATM   14 CL1  UNL     1      22.808   3.427  48.319  1.00  0.00    -0.095 Cl
HETATM   15  C17 UNL     1      22.973   5.621  51.255  1.00  0.00     0.231 A 
HETATM   16  N2  UNL     1      23.658   4.834  52.221  1.00  0.00    -0.224 NA
ENDBRANCH   7   9
ENDBRANCH   1   7
BRANCH   2  17
HETATM   17  O1  UNL     1      26.828   3.006  51.004  1.00  0.00    -0.348 OA
BRANCH  17  18
HETATM   18  C6  UNL     1      26.537   3.122  49.607  1.00  0.00     0.214 C 
BRANCH  18  19
HETATM   19  C7  UNL     1      26.805   4.470  49.082  1.00  0.00    -0.031 A 
HETATM   20  C8  UNL     1      28.018   4.939  48.614  1.00  0.00     0.009 A 
HETATM   21  C9  UNL     1      28.147   6.231  48.144  1.00  0.00     0.004 A 
HETATM   22  C10 UNL     1      27.089   7.123  48.112  1.00  0.00     0.042 A 
HETATM   23  C11 UNL     1      25.872   6.666  48.577  1.00  0.00     0.117 A 
HETATM   24  F1  UNL     1      24.805   7.492  48.569  1.00  0.00    -0.206 F 
HETATM   25  C12 UNL     1      25.754   5.366  49.047  1.00  0.00     0.051 A 
ENDBRANCH  18  19
ENDBRANCH  17  18
ENDBRANCH   2  17
TORSDOF 5
ENDMDL
MODEL 8
REMARK VINA RESULT:      -7.7      3.800      7.090
REMARK  5 active torsions:
REMARK  status: ('A' for Active; 'I' for Inactive)
REMARK    1  A    between atoms: C3_3  and  N1_4 
REMARK    2  A    between atoms: N1_4  and  C4_5 
REMARK    3  A    between atoms: C5_6  and  O1_7 
REMARK    4  A    between atoms: O1_7  and  C6_8 
REMARK    5  A    between atoms: C6_8  and  C7_9 
ROOT
HETATM    1  C4  UNL     1      22.569   1.671  52.296  1.00  0.00     0.063 A 
HETATM    2  C5  UNL     1      23.705   0.995  52.320  1.00  0.00     0.077 A 
HETATM    3  C13 UNL     1      23.626  -0.166  53.236  1.00  0.00     0.100 A 
HETATM    4  C14 UNL     1      22.226  -0.053  53.754  1.00  0.00    -0.075 A 
HETATM    5  C15 UNL     1      21.719  -1.054  54.734  1.00  0.00     0.044 C 
HETATM    6  C16 UNL     1      21.629   0.997  53.214  1.00  0.00     0.035 A 
ENDROOT
BRANCH   1   7
HETATM    7  N1  UNL     1      22.157   2.835  51.588  1.00  0.00    -0.338 N 
HETATM    8  H3  UNL     1      22.201   3.777  52.066  1.00  0.00     0.167 HD
BRANCH   7   9
HETATM    9  C3  UNL     1      21.689   2.763  50.259  1.00  0.00     0.138 A 
HETATM   10  C2  UNL     1      22.507   3.098  49.119  1.00  0.00     0.018 A 
HETATM   11  C1  UNL     1      23.740   3.486  49.333  1.00  0.00     0.026 C 
HETATM   12  C18 UNL     1      22.124   3.059  47.691  1.00  0.00     0.241 A 
HETATM   13  N3  UNL     1      20.764   2.622  47.607  1.00  0.00    -0.257 NA
HETATM   14 CL1  UNL     1      22.367   4.692  47.021  1.00  0.00    -0.095 Cl
HETATM   15  C17 UNL     1      20.082   2.336  48.661  1.00  0.00     0.231 A 
HETATM   16  N2  UNL     1      20.478   2.383  50.026  1.00  0.00    -0.224 NA
ENDBRANCH   7   9
ENDBRANCH   1   7
BRANCH   2  17
HETATM   17  O1  UNL     1      24.928   1.121  51.695  1.00  0.00    -0.348 OA
BRANCH  17  18
HETATM   18  C6  UNL     1      25.921   2.035  52.173  1.00  0.00     0.214 C 
BRANCH  18  19
HETATM   19  C7  UNL     1      27.067   1.353  52.792  1.00  0.00    -0.031 A 
HETATM   20  C8  UNL     1      27.350   0.002  52.721  1.00  0.00     0.009 A 
HETATM   21  C9  UNL     1      28.463  -0.525  53.348  1.00  0.00     0.004 A 
HETATM   22  C10 UNL     1      29.348   0.252  54.075  1.00  0.00     0.042 A 
HETATM   23  C11 UNL     1      29.076   1.604  54.153  1.00  0.00     0.117 A 
HETATM   24  F1  UNL     1      29.905   2.409  54.848  1.00  0.00    -0.206 F 
HETATM   25  C12 UNL     1      27.956   2.121  53.519  1.00  0.00     0.051 A 
ENDBRANCH  18  19
ENDBRANCH  17  18
ENDBRANCH   2  17
TORSDOF 5
ENDMDL
MODEL 9
REMARK VINA RESULT:      -7.6      3.357      5.443
REMARK  5 active torsions:
REMARK  status: ('A' for Active; 'I' for Inactive)
REMARK    1  A    between atoms: C3_3  and  N1_4 
REMARK    2  A    between atoms: N1_4  and  C4_5 
REMARK    3  A    between atoms: C5_6  and  O1_7 
REMARK    4  A    between atoms: O1_7  and  C6_8 
REMARK    5  A    between atoms: C6_8  and  C7_9 
ROOT
HETATM    1  C4  UNL     1      24.842   4.471  49.600  1.00  0.00     0.063 A 
HETATM    2  C5  UNL     1      25.838   3.635  49.845  1.00  0.00     0.077 A 
HETATM    3  C13 UNL     1      27.127   4.169  49.353  1.00  0.00     0.100 A 
HETATM    4  C14 UNL     1      26.713   5.483  48.766  1.00  0.00    -0.075 A 
HETATM    5  C15 UNL     1      27.736   6.369  48.143  1.00  0.00     0.044 C 
HETATM    6  C16 UNL     1      25.407   5.648  48.911  1.00  0.00     0.035 A 
ENDROOT
BRANCH   1   7
HETATM    7  N1  UNL     1      23.447   4.412  49.873  1.00  0.00    -0.338 N 
HETATM    8  H3  UNL     1      22.953   5.269  50.244  1.00  0.00     0.167 HD
BRANCH   7   9
HETATM    9  C3  UNL     1      22.704   3.232  49.660  1.00  0.00     0.138 A 
HETATM   10  C2  UNL     1      21.995   2.548  50.714  1.00  0.00     0.018 A 
HETATM   11  C1  UNL     1      22.048   3.051  51.923  1.00  0.00     0.026 C 
HETATM   12  C18 UNL     1      21.189   1.313  50.606  1.00  0.00     0.241 A 
HETATM   13  N3  UNL     1      21.219   0.879  49.243  1.00  0.00    -0.257 NA
HETATM   14 CL1  UNL     1      21.883   0.114  51.727  1.00  0.00    -0.095 Cl
HETATM   15  C17 UNL     1      21.870   1.532  48.343  1.00  0.00     0.231 A 
HETATM   16  N2  UNL     1      22.639   2.720  48.476  1.00  0.00    -0.224 NA
ENDBRANCH   7   9
ENDBRANCH   1   7
BRANCH   2  17
HETATM   17  O1  UNL     1      25.946   2.400  50.447  1.00  0.00    -0.348 OA
BRANCH  17  18
HETATM   18  C6  UNL     1      25.855   2.250  51.868  1.00  0.00     0.214 C 
BRANCH  18  19
HETATM   19  C7  UNL     1      26.792   1.245  52.393  1.00  0.00    -0.031 A 
HETATM   20  C8  UNL     1      27.962   1.500  53.084  1.00  0.00     0.009 A 
HETATM   21  C9  UNL     1      28.764   0.469  53.529  1.00  0.00     0.004 A 
HETATM   22  C10 UNL     1      28.454  -0.864  53.315  1.00  0.00     0.042 A 
HETATM   23  C11 UNL     1      27.288  -1.132  52.626  1.00  0.00     0.117 A 
HETATM   24  F1  UNL     1      26.936  -2.412  52.389  1.00  0.00    -0.206 F 
HETATM   25  C12 UNL     1      26.490  -0.086  52.184  1.00  0.00     0.051 A 
ENDBRANCH  18  19
ENDBRANCH  17  18
ENDBRANCH   2  17
TORSDOF 5
ENDMDL
