MODEL 1
REMARK VINA RESULT:      -8.0      0.000      0.000
REMARK  0 active torsions:
REMARK  status: ('A' for Active; 'I' for Inactive)
ROOT
HETATM    1  C1  UNL     1      22.817  -1.482  54.806  1.00  0.00     0.049 C 
HETATM    2  C2  UNL     1      23.368  -0.491  53.849  1.00  0.00    -0.044 C 
HETATM    3  C3  UNL     1      22.487   0.067  53.070  1.00  0.00     0.027 C 
HETATM    4  C4  UNL     1      21.637   0.765  52.142  1.00  0.00     0.118 C 
HETATM    5  N1  UNL     1      21.490   1.610  51.206  1.00  0.00    -0.255 NA
HETATM    6  C5  UNL     1      20.329   1.985  50.561  1.00  0.00     0.228 C 
HETATM    7  N2  UNL     1      20.410   3.282  50.773  1.00  0.00    -0.264 NA
HETATM    8  C6  UNL     1      21.595   3.737  51.539  1.00  0.00     0.272 C 
HETATM    9  N3  UNL     1      22.782   3.658  50.747  1.00  0.00    -0.372 N 
HETATM   10  C7  UNL     1      23.888   3.222  51.566  1.00  0.00     0.029 A 
HETATM   11  C8  UNL     1      23.990   3.504  52.905  1.00  0.00     0.030 A 
HETATM   12  C9  UNL     1      25.032   2.933  53.593  1.00  0.00     0.011 A 
HETATM   13  C10 UNL     1      25.901   2.122  52.905  1.00  0.00    -0.040 A 
HETATM   14  C11 UNL     1      25.811   1.838  51.567  1.00  0.00     0.011 A 
HETATM   15  C12 UNL     1      24.766   2.412  50.881  1.00  0.00     0.030 A 
HETATM   16  C13 UNL     1      26.918   1.521  53.847  1.00  0.00     0.107 C 
HETATM   17  C14 UNL     1      27.933   0.798  53.092  1.00  0.00    -0.010 C 
HETATM   18  C15 UNL     1      27.644  -0.429  52.629  1.00  0.00    -0.025 C 
HETATM   19  C16 UNL     1      26.667  -1.505  52.539  1.00  0.00     0.055 C 
HETATM   20  C17 UNL     1      25.395  -1.323  53.252  1.00  0.00    -0.004 C 
HETATM   21  C18 UNL     1      24.822  -0.419  54.072  1.00  0.00     0.004 C 
HETATM   22  S1  UNL     1      26.048   0.487  55.066  1.00  0.00    -0.116 SA
HETATM   23  H9  UNL     1      22.858   3.875  49.742  1.00  0.00     0.161 HD
ENDROOT
TORSDOF 0
ENDMDL
MODEL 2
REMARK VINA RESULT:      -7.9      3.019      6.024
REMARK  0 active torsions:
REMARK  status: ('A' for Active; 'I' for Inactive)
ROOT
HETATM    1  C1  UNL     1      27.101   4.315  49.135  1.00  0.00     0.049 C 
HETATM    2  C2  UNL     1      26.069   3.614  49.936  1.00  0.00    -0.044 C 
HETATM    3  C3  UNL     1      26.474   2.524  50.520  1.00  0.00     0.027 C 
HETATM    4  C4  UNL     1      26.771   1.304  51.224  1.00  0.00     0.118 C 
HETATM    5  N1  UNL     1      26.403   0.351  51.976  1.00  0.00    -0.255 NA
HETATM    6  C5  UNL     1      27.145  -0.720  52.432  1.00  0.00     0.228 C 
HETATM    7  N2  UNL     1      26.940  -0.551  53.722  1.00  0.00    -0.264 NA
HETATM    8  C6  UNL     1      26.087   0.603  54.093  1.00  0.00     0.272 C 
HETATM    9  N3  UNL     1      24.716   0.354  53.773  1.00  0.00    -0.372 N 
HETATM   10  C7  UNL     1      24.102   1.565  53.283  1.00  0.00     0.029 A 
HETATM   11  C8  UNL     1      24.482   2.820  53.690  1.00  0.00     0.030 A 
HETATM   12  C9  UNL     1      23.897   3.891  53.061  1.00  0.00     0.011 A 
HETATM   13  C10 UNL     1      22.975   3.644  52.072  1.00  0.00    -0.040 A 
HETATM   14  C11 UNL     1      22.585   2.395  51.662  1.00  0.00     0.011 A 
HETATM   15  C12 UNL     1      23.173   1.325  52.295  1.00  0.00     0.030 A 
HETATM   16  C13 UNL     1      22.516   4.939  51.445  1.00  0.00     0.107 C 
HETATM   17  C14 UNL     1      21.422   4.685  50.516  1.00  0.00    -0.010 C 
HETATM   18  C15 UNL     1      21.706   4.201  49.297  1.00  0.00    -0.025 C 
HETATM   19  C16 UNL     1      22.736   3.776  48.357  1.00  0.00     0.055 C 
HETATM   20  C17 UNL     1      24.135   3.913  48.782  1.00  0.00    -0.004 C 
HETATM   21  C18 UNL     1      24.824   4.396  49.836  1.00  0.00     0.004 C 
HETATM   22  S1  UNL     1      23.947   5.755  50.671  1.00  0.00    -0.116 SA
HETATM   23  H9  UNL     1      24.222  -0.545  53.870  1.00  0.00     0.161 HD
ENDROOT
TORSDOF 0
ENDMDL
MODEL 3
REMARK VINA RESULT:      -7.6      2.564      4.953
REMARK  0 active torsions:
REMARK  status: ('A' for Active; 'I' for Inactive)
ROOT
HETATM    1  C1  UNL     1      25.750   2.512  53.724  1.00  0.00     0.049 C 
HETATM    2  C2  UNL     1      24.524   2.237  52.935  1.00  0.00    -0.044 C 
HETATM    3  C3  UNL     1      23.904   1.138  53.252  1.00  0.00     0.027 C 
HETATM    4  C4  UNL     1      23.111  -0.041  53.485  1.00  0.00     0.118 C 
HETATM    5  N1  UNL     1      22.103  -0.760  53.209  1.00  0.00    -0.255 NA
HETATM    6  C5  UNL     1      21.717  -1.956  53.782  1.00  0.00     0.228 C 
HETATM    7  N2  UNL     1      20.495  -1.608  54.129  1.00  0.00    -0.264 NA
HETATM    8  C6  UNL     1      20.099  -0.220  53.792  1.00  0.00     0.272 C 
HETATM    9  N3  UNL     1      19.883  -0.073  52.386  1.00  0.00    -0.372 N 
HETATM   10  C7  UNL     1      20.372   1.213  51.949  1.00  0.00     0.029 A 
HETATM   11  C8  UNL     1      20.378   2.328  52.749  1.00  0.00     0.030 A 
HETATM   12  C9  UNL     1      20.975   3.459  52.251  1.00  0.00     0.011 A 
HETATM   13  C10 UNL     1      21.525   3.407  50.993  1.00  0.00    -0.040 A 
HETATM   14  C11 UNL     1      21.520   2.300  50.184  1.00  0.00     0.011 A 
HETATM   15  C12 UNL     1      20.920   1.169  50.687  1.00  0.00     0.030 A 
HETATM   16  C13 UNL     1      22.209   4.712  50.662  1.00  0.00     0.107 C 
HETATM   17  C14 UNL     1      22.644   4.711  49.272  1.00  0.00    -0.010 C 
HETATM   18  C15 UNL     1      23.764   4.047  48.944  1.00  0.00    -0.025 C 
HETATM   19  C16 UNL     1      24.889   3.242  49.402  1.00  0.00     0.055 C 
HETATM   20  C17 UNL     1      24.996   2.991  50.845  1.00  0.00    -0.004 C 
HETATM   21  C18 UNL     1      24.355   3.344  51.978  1.00  0.00     0.004 C 
HETATM   22  S1  UNL     1      23.566   4.979  51.845  1.00  0.00    -0.116 SA
HETATM   23  H9  UNL     1      19.447  -0.768  51.763  1.00  0.00     0.161 HD
ENDROOT
TORSDOF 0
ENDMDL
MODEL 4
REMARK VINA RESULT:      -7.5      3.127      5.968
REMARK  0 active torsions:
REMARK  status: ('A' for Active; 'I' for Inactive)
ROOT
HETATM    1  C1  UNL     1      25.247   3.087  51.017  1.00  0.00     0.049 C 
HETATM    2  C2  UNL     1      23.895   2.478  51.027  1.00  0.00    -0.044 C 
HETATM    3  C3  UNL     1      23.732   1.520  51.893  1.00  0.00     0.027 C 
HETATM    4  C4  UNL     1      23.399   0.449  52.795  1.00  0.00     0.118 C 
HETATM    5  N1  UNL     1      22.557  -0.384  53.249  1.00  0.00    -0.255 NA
HETATM    6  C5  UNL     1      22.730  -1.328  54.242  1.00  0.00     0.228 C 
HETATM    7  N2  UNL     1      21.736  -0.959  55.023  1.00  0.00    -0.264 NA
HETATM    8  C6  UNL     1      20.938   0.197  54.549  1.00  0.00     0.272 C 
HETATM    9  N3  UNL     1      20.109  -0.168  53.444  1.00  0.00    -0.372 N 
HETATM   10  C7  UNL     1      20.063   0.913  52.489  1.00  0.00     0.029 A 
HETATM   11  C8  UNL     1      20.169   2.236  52.844  1.00  0.00     0.030 A 
HETATM   12  C9  UNL     1      20.227   3.158  51.829  1.00  0.00     0.011 A 
HETATM   13  C10 UNL     1      20.175   2.707  50.532  1.00  0.00    -0.040 A 
HETATM   14  C11 UNL     1      20.064   1.389  50.168  1.00  0.00     0.011 A 
HETATM   15  C12 UNL     1      20.006   0.468  51.187  1.00  0.00     0.030 A 
HETATM   16  C13 UNL     1      20.342   3.856  49.567  1.00  0.00     0.107 C 
HETATM   17  C14 UNL     1      20.121   3.399  48.201  1.00  0.00    -0.010 C 
HETATM   18  C15 UNL     1      21.105   2.735  47.573  1.00  0.00    -0.025 C 
HETATM   19  C16 UNL     1      22.463   2.212  47.635  1.00  0.00     0.055 C 
HETATM   20  C17 UNL     1      23.237   2.487  48.853  1.00  0.00    -0.004 C 
HETATM   21  C18 UNL     1      23.089   3.170  50.007  1.00  0.00     0.004 C 
HETATM   22  S1  UNL     1      21.982   4.603  49.824  1.00  0.00    -0.116 SA
HETATM   23  H9  UNL     1      19.610  -1.063  53.327  1.00  0.00     0.161 HD
ENDROOT
TORSDOF 0
ENDMDL
MODEL 5
REMARK VINA RESULT:      -7.4      2.727      5.394
REMARK  0 active torsions:
REMARK  status: ('A' for Active; 'I' for Inactive)
ROOT
HETATM    1  C1  UNL     1      20.781   0.238  50.251  1.00  0.00     0.049 C 
HETATM    2  C2  UNL     1      21.781   1.023  51.016  1.00  0.00    -0.044 C 
HETATM    3  C3  UNL     1      22.376   0.369  51.971  1.00  0.00     0.027 C 
HETATM    4  C4  UNL     1      23.116  -0.215  53.059  1.00  0.00     0.118 C 
HETATM    5  N1  UNL     1      23.984  -0.114  53.978  1.00  0.00    -0.255 NA
HETATM    6  C5  UNL     1      24.401  -1.075  54.877  1.00  0.00     0.228 C 
HETATM    7  N2  UNL     1      25.691  -1.026  54.615  1.00  0.00    -0.264 NA
HETATM    8  C6  UNL     1      26.100  -0.058  53.570  1.00  0.00     0.272 C 
HETATM    9  N3  UNL     1      26.013   1.286  54.049  1.00  0.00    -0.372 N 
HETATM   10  C7  UNL     1      25.532   2.149  52.997  1.00  0.00     0.029 A 
HETATM   11  C8  UNL     1      25.781   1.923  51.665  1.00  0.00     0.030 A 
HETATM   12  C9  UNL     1      25.171   2.755  50.760  1.00  0.00     0.011 A 
HETATM   13  C10 UNL     1      24.356   3.753  51.236  1.00  0.00    -0.040 A 
HETATM   14  C11 UNL     1      24.105   3.990  52.563  1.00  0.00     0.011 A 
HETATM   15  C12 UNL     1      24.719   3.155  53.467  1.00  0.00     0.030 A 
HETATM   16  C13 UNL     1      23.710   4.498  50.091  1.00  0.00     0.107 C 
HETATM   17  C14 UNL     1      22.981   5.655  50.594  1.00  0.00    -0.010 C 
HETATM   18  C15 UNL     1      21.772   5.468  51.148  1.00  0.00    -0.025 C 
HETATM   19  C16 UNL     1      20.721   4.525  51.506  1.00  0.00     0.055 C 
HETATM   20  C17 UNL     1      20.916   3.120  51.121  1.00  0.00    -0.004 C 
HETATM   21  C18 UNL     1      21.814   2.378  50.441  1.00  0.00     0.004 C 
HETATM   22  S1  UNL     1      22.668   3.338  49.152  1.00  0.00    -0.116 SA
HETATM   23  H9  UNL     1      26.251   1.609  54.998  1.00  0.00     0.161 HD
ENDROOT
TORSDOF 0
ENDMDL
MODEL 6
REMARK VINA RESULT:      -7.3     10.077     12.150
REMARK  0 active torsions:
REMARK  status: ('A' for Active; 'I' for Inactive)
ROOT
HETATM    1  C1  UNL     1      28.434   5.856  48.206  1.00  0.00     0.049 C 
HETATM    2  C2  UNL     1      29.796   6.353  47.891  1.00  0.00    -0.044 C 
HETATM    3  C3  UNL     1      30.718   5.435  47.849  1.00  0.00     0.027 C 
HETATM    4  C4  UNL     1      31.842   4.540  47.769  1.00  0.00     0.118 C 
HETATM    5  N1  UNL     1      33.079   4.344  47.568  1.00  0.00    -0.255 NA
HETATM    6  C5  UNL     1      33.779   3.155  47.607  1.00  0.00     0.228 C 
HETATM    7  N2  UNL     1      34.308   3.212  46.402  1.00  0.00    -0.264 NA
HETATM    8  C6  UNL     1      33.958   4.409  45.601  1.00  0.00     0.272 C 
HETATM    9  N3  UNL     1      34.627   5.572  46.094  1.00  0.00    -0.372 N 
HETATM   10  C7  UNL     1      33.746   6.713  46.012  1.00  0.00     0.029 A 
HETATM   11  C8  UNL     1      32.779   6.850  45.047  1.00  0.00     0.030 A 
HETATM   12  C9  UNL     1      31.933   7.926  45.150  1.00  0.00     0.011 A 
HETATM   13  C10 UNL     1      32.104   8.793  46.202  1.00  0.00    -0.040 A 
HETATM   14  C11 UNL     1      33.070   8.668  47.167  1.00  0.00     0.011 A 
HETATM   15  C12 UNL     1      33.915   7.589  47.061  1.00  0.00     0.030 A 
HETATM   16  C13 UNL     1      31.028   9.853  46.192  1.00  0.00     0.107 C 
HETATM   17  C14 UNL     1      31.308  10.860  47.206  1.00  0.00    -0.010 C 
HETATM   18  C15 UNL     1      31.020  10.587  48.488  1.00  0.00    -0.025 C 
HETATM   19  C16 UNL     1      30.474   9.633  49.444  1.00  0.00     0.055 C 
HETATM   20  C17 UNL     1      29.925   8.380  48.908  1.00  0.00    -0.004 C 
HETATM   21  C18 UNL     1      29.704   7.811  47.705  1.00  0.00     0.004 C 
HETATM   22  S1  UNL     1      29.409   9.046  46.401  1.00  0.00    -0.116 SA
HETATM   23  H9  UNL     1      35.590   5.612  46.456  1.00  0.00     0.161 HD
ENDROOT
TORSDOF 0
ENDMDL
MODEL 7
REMARK VINA RESULT:      -7.2      9.877     12.374
REMARK  0 active torsions:
REMARK  status: ('A' for Active; 'I' for Inactive)
ROOT
HETATM    1  C1  UNL     1      33.230   9.261  44.686  1.00  0.00     0.049 C 
HETATM    2  C2  UNL     1      32.687   8.142  45.494  1.00  0.00    -0.044 C 
HETATM    3  C3  UNL     1      33.360   7.031  45.414  1.00  0.00     0.027 C 
HETATM    4  C4  UNL     1      33.994   5.738  45.426  1.00  0.00     0.118 C 
HETATM    5  N1  UNL     1      34.039   4.540  45.839  1.00  0.00    -0.255 NA
HETATM    6  C5  UNL     1      34.958   3.557  45.528  1.00  0.00     0.228 C 
HETATM    7  N2  UNL     1      35.329   3.256  46.756  1.00  0.00    -0.264 NA
HETATM    8  C6  UNL     1      34.668   4.026  47.836  1.00  0.00     0.272 C 
HETATM    9  N3  UNL     1      33.309   3.615  48.004  1.00  0.00    -0.372 N 
HETATM   10  C7  UNL     1      32.483   4.764  48.290  1.00  0.00     0.029 A 
HETATM   11  C8  UNL     1      32.940   5.871  48.961  1.00  0.00     0.030 A 
HETATM   12  C9  UNL     1      32.087   6.942  49.066  1.00  0.00     0.011 A 
HETATM   13  C10 UNL     1      30.840   6.841  48.499  1.00  0.00    -0.040 A 
HETATM   14  C11 UNL     1      30.372   5.738  47.832  1.00  0.00     0.011 A 
HETATM   15  C12 UNL     1      31.230   4.667  47.729  1.00  0.00     0.030 A 
HETATM   16  C13 UNL     1      30.089   8.144  48.642  1.00  0.00     0.107 C 
HETATM   17  C14 UNL     1      28.714   7.981  48.189  1.00  0.00    -0.010 C 
HETATM   18  C15 UNL     1      28.461   7.985  46.871  1.00  0.00    -0.025 C 
HETATM   19  C16 UNL     1      28.995   8.108  45.521  1.00  0.00     0.055 C 
HETATM   20  C17 UNL     1      30.432   8.388  45.388  1.00  0.00    -0.004 C 
HETATM   21  C18 UNL     1      31.487   8.638  46.189  1.00  0.00     0.004 C 
HETATM   22  S1  UNL     1      30.997   9.443  47.746  1.00  0.00    -0.116 SA
HETATM   23  H9  UNL     1      32.952   2.650  47.936  1.00  0.00     0.161 HD
ENDROOT
TORSDOF 0
ENDMDL
MODEL 8
REMARK VINA RESULT:      -7.1      4.477      6.372
REMARK  0 active torsions:
REMARK  status: ('A' for Active; 'I' for Inactive)
ROOT
HETATM    1  C1  UNL     1      21.885   3.598  46.527  1.00  0.00     0.049 C 
HETATM    2  C2  UNL     1      22.169   3.757  47.974  1.00  0.00    -0.044 C 
HETATM    3  C3  UNL     1      23.197   4.505  48.252  1.00  0.00     0.027 C 
HETATM    4  C4  UNL     1      24.303   5.302  48.717  1.00  0.00     0.118 C 
HETATM    5  N1  UNL     1      24.990   5.778  49.670  1.00  0.00    -0.255 NA
HETATM    6  C5  UNL     1      26.101   6.595  49.604  1.00  0.00     0.228 C 
HETATM    7  N2  UNL     1      25.655   7.575  50.364  1.00  0.00    -0.264 NA
HETATM    8  C6  UNL     1      24.287   7.399  50.907  1.00  0.00     0.272 C 
HETATM    9  N3  UNL     1      24.267   6.411  51.940  1.00  0.00    -0.372 N 
HETATM   10  C7  UNL     1      23.058   5.628  51.844  1.00  0.00     0.029 A 
HETATM   11  C8  UNL     1      21.872   6.130  51.368  1.00  0.00     0.030 A 
HETATM   12  C9  UNL     1      20.829   5.249  51.220  1.00  0.00     0.011 A 
HETATM   13  C10 UNL     1      21.034   3.932  51.554  1.00  0.00    -0.040 A 
HETATM   14  C11 UNL     1      22.212   3.423  52.035  1.00  0.00     0.011 A 
HETATM   15  C12 UNL     1      23.255   4.308  52.182  1.00  0.00     0.030 A 
HETATM   16  C13 UNL     1      19.805   3.112  51.238  1.00  0.00     0.107 C 
HETATM   17  C14 UNL     1      19.966   1.755  51.744  1.00  0.00    -0.010 C 
HETATM   18  C15 UNL     1      20.719   0.888  51.048  1.00  0.00    -0.025 C 
HETATM   19  C16 UNL     1      21.535   0.650  49.865  1.00  0.00     0.055 C 
HETATM   20  C17 UNL     1      21.649   1.746  48.893  1.00  0.00    -0.004 C 
HETATM   21  C18 UNL     1      21.153   2.987  48.712  1.00  0.00     0.004 C 
HETATM   22  S1  UNL     1      19.499   3.183  49.445  1.00  0.00    -0.116 SA
HETATM   23  H9  UNL     1      24.994   6.264  52.655  1.00  0.00     0.161 HD
ENDROOT
TORSDOF 0
ENDMDL
MODEL 9
REMARK VINA RESULT:      -6.9      2.842      5.230
REMARK  0 active torsions:
REMARK  status: ('A' for Active; 'I' for Inactive)
ROOT
HETATM    1  C1  UNL     1      21.354   6.083  50.111  1.00  0.00     0.049 C 
HETATM    2  C2  UNL     1      21.236   4.756  50.763  1.00  0.00    -0.044 C 
HETATM    3  C3  UNL     1      20.016   4.338  50.939  1.00  0.00     0.027 C 
HETATM    4  C4  UNL     1      18.732   3.743  51.202  1.00  0.00     0.118 C 
HETATM    5  N1  UNL     1      18.037   2.783  51.655  1.00  0.00    -0.255 NA
HETATM    6  C5  UNL     1      16.663   2.657  51.687  1.00  0.00     0.228 C 
HETATM    7  N2  UNL     1      16.568   1.505  51.055  1.00  0.00    -0.264 NA
HETATM    8  C6  UNL     1      17.850   0.900  50.622  1.00  0.00     0.272 C 
HETATM    9  N3  UNL     1      18.576   0.379  51.738  1.00  0.00    -0.372 N 
HETATM   10  C7  UNL     1      19.988   0.623  51.559  1.00  0.00     0.029 A 
HETATM   11  C8  UNL     1      20.592   0.677  50.327  1.00  0.00     0.030 A 
HETATM   12  C9  UNL     1      21.918   1.032  50.290  1.00  0.00     0.011 A 
HETATM   13  C10 UNL     1      22.554   1.307  51.477  1.00  0.00    -0.040 A 
HETATM   14  C11 UNL     1      21.960   1.251  52.711  1.00  0.00     0.011 A 
HETATM   15  C12 UNL     1      20.632   0.896  52.744  1.00  0.00     0.030 A 
HETATM   16  C13 UNL     1      23.971   1.762  51.222  1.00  0.00     0.107 C 
HETATM   17  C14 UNL     1      24.689   1.893  52.483  1.00  0.00    -0.010 C 
HETATM   18  C15 UNL     1      24.480   2.984  53.237  1.00  0.00    -0.025 C 
HETATM   19  C16 UNL     1      23.792   4.260  53.381  1.00  0.00     0.055 C 
HETATM   20  C17 UNL     1      22.936   4.694  52.268  1.00  0.00    -0.004 C 
HETATM   21  C18 UNL     1      22.601   4.271  51.032  1.00  0.00     0.004 C 
HETATM   22  S1  UNL     1      23.927   3.301  50.250  1.00  0.00    -0.116 SA
HETATM   23  H9  UNL     1      18.173  -0.101  52.555  1.00  0.00     0.161 HD
ENDROOT
TORSDOF 0
ENDMDL
