MODEL 1
REMARK VINA RESULT:      -7.1      0.000      0.000
REMARK  7 active torsions:
REMARK  status: ('A' for Active; 'I' for Inactive)
REMARK    1  A    between atoms: C5_6  and  N2_7 
REMARK    2  A    between atoms: N2_7  and  C6_8 
REMARK    3  A    between atoms: C9_11  and  C10_12 
REMARK    4  A    between atoms: C10_12  and  C11_13 
REMARK    5  A    between atoms: C12_14  and  O1_15 
REMARK    6  A    between atoms: C16_20  and  C17_21 
REMARK    7  A    between atoms: C16_20  and  C19_23 
REMARK       I    between atoms: C19_23  and  N3_24 
ROOT
HETATM    1  C1  UNL     1      23.306   5.778  47.730  1.00  0.00     0.144 C 
HETATM    2  N1  UNL     1      22.790   5.214  48.921  1.00  0.00    -0.395 N 
HETATM    3  C2  UNL     1      21.368   5.148  48.969  1.00  0.00     0.145 C 
HETATM    4  C3  UNL     1      20.748   5.545  50.262  1.00  0.00    -0.009 C 
HETATM    5  C4  UNL     1      21.389   5.320  51.435  1.00  0.00    -0.002 C 
HETATM    6  C5  UNL     1      22.698   4.663  51.161  1.00  0.00     0.141 C 
HETATM    7  C16 UNL     1      23.425   5.546  50.167  1.00  0.00     0.127 C 
ENDROOT
BRANCH   6   8
HETATM    8  N2  UNL     1      23.415   4.227  52.301  1.00  0.00    -0.379 N 
HETATM    9  H9  UNL     1      23.622   4.995  53.021  1.00  0.00     0.160 HD
BRANCH   8  10
HETATM   10  C6  UNL     1      23.937   2.972  52.734  1.00  0.00     0.030 A 
HETATM   11  C7  UNL     1      25.196   2.794  53.207  1.00  0.00     0.030 A 
HETATM   12  C8  UNL     1      25.740   1.596  53.617  1.00  0.00     0.011 A 
HETATM   13  C9  UNL     1      24.948   0.450  53.553  1.00  0.00    -0.033 A 
HETATM   14  C14 UNL     1      23.678   0.589  53.084  1.00  0.00     0.042 A 
HETATM   15 CL1  UNL     1      22.631  -0.805  52.978  1.00  0.00    -0.084 Cl
HETATM   16  C15 UNL     1      23.191   1.813  52.688  1.00  0.00     0.053 A 
BRANCH  13  17
HETATM   17  C10 UNL     1      25.526  -0.854  53.992  1.00  0.00     0.069 C 
BRANCH  17  18
HETATM   18  C11 UNL     1      26.451  -1.340  52.938  1.00  0.00     0.002 C 
HETATM   19  C12 UNL     1      27.751  -1.394  52.995  1.00  0.00     0.130 C 
BRANCH  19  20
HETATM   20  O1  UNL     1      28.501  -0.997  54.074  1.00  0.00    -0.368 OA
HETATM   21  C13 UNL     1      29.207   0.204  54.096  1.00  0.00     0.208 C 
ENDBRANCH  19  20
ENDBRANCH  17  18
ENDBRANCH  13  17
ENDBRANCH   8  10
ENDBRANCH   6   8
BRANCH   7  22
HETATM   22  C17 UNL     1      24.870   5.231  50.281  1.00  0.00     0.038 C 
HETATM   23  C18 UNL     1      25.381   4.037  49.556  1.00  0.00     0.008 C 
ENDBRANCH   7  22
BRANCH   7  24
HETATM   24  C19 UNL     1      23.225   6.947  50.561  1.00  0.00     0.225 C 
HETATM   25  N3  UNL     1      24.089   7.448  51.572  1.00  0.00    -0.270 NA
HETATM   26  H25 UNL     1      24.687   7.695  52.418  1.00  0.00     0.127 HD
HETATM   27  H26 UNL     1      24.687   7.693  52.421  1.00  0.00     0.127 HD
HETATM   28  O2  UNL     1      22.842   8.159  50.707  1.00  0.00    -0.277 OA
ENDBRANCH   7  24
TORSDOF 7
ENDMDL
MODEL 2
REMARK VINA RESULT:      -7.0      7.837      9.313
REMARK  7 active torsions:
REMARK  status: ('A' for Active; 'I' for Inactive)
REMARK    1  A    between atoms: C5_6  and  N2_7 
REMARK    2  A    between atoms: N2_7  and  C6_8 
REMARK    3  A    between atoms: C9_11  and  C10_12 
REMARK    4  A    between atoms: C10_12  and  C11_13 
REMARK    5  A    between atoms: C12_14  and  O1_15 
REMARK    6  A    between atoms: C16_20  and  C17_21 
REMARK    7  A    between atoms: C16_20  and  C19_23 
REMARK       I    between atoms: C19_23  and  N3_24 
ROOT
HETATM    1  C1  UNL     1      27.041  10.950  46.948  1.00  0.00     0.144 C 
HETATM    2  N1  UNL     1      27.606   9.692  47.270  1.00  0.00    -0.395 N 
HETATM    3  C2  UNL     1      26.851   8.576  46.806  1.00  0.00     0.145 C 
HETATM    4  C3  UNL     1      26.700   7.454  47.771  1.00  0.00    -0.009 C 
HETATM    5  C4  UNL     1      27.681   7.173  48.663  1.00  0.00    -0.002 C 
HETATM    6  C5  UNL     1      28.806   8.132  48.476  1.00  0.00     0.141 C 
HETATM    7  C16 UNL     1      28.208   9.522  48.562  1.00  0.00     0.127 C 
ENDROOT
BRANCH   6   8
HETATM    8  N2  UNL     1      29.970   7.867  49.235  1.00  0.00    -0.379 N 
HETATM    9  H9  UNL     1      29.940   8.236  50.242  1.00  0.00     0.160 HD
BRANCH   8  10
HETATM   10  C6  UNL     1      31.205   7.202  48.975  1.00  0.00     0.030 A 
HETATM   11  C7  UNL     1      31.338   5.855  48.879  1.00  0.00     0.030 A 
HETATM   12  C8  UNL     1      32.515   5.177  48.646  1.00  0.00     0.011 A 
HETATM   13  C9  UNL     1      33.687   5.916  48.490  1.00  0.00    -0.033 A 
HETATM   14  C14 UNL     1      33.593   7.271  48.579  1.00  0.00     0.042 A 
HETATM   15 CL1  UNL     1      35.022   8.257  48.392  1.00  0.00    -0.084 Cl
HETATM   16  C15 UNL     1      32.389   7.891  48.815  1.00  0.00     0.053 A 
BRANCH  13  17
HETATM   17  C10 UNL     1      34.969   5.194  48.240  1.00  0.00     0.069 C 
BRANCH  17  18
HETATM   18  C11 UNL     1      34.655   3.806  47.814  1.00  0.00     0.002 C 
HETATM   19  C12 UNL     1      34.864   3.276  46.644  1.00  0.00     0.130 C 
BRANCH  19  20
HETATM   20  O1  UNL     1      35.427   3.934  45.578  1.00  0.00    -0.368 OA
HETATM   21  C13 UNL     1      34.668   4.441  44.524  1.00  0.00     0.208 C 
ENDBRANCH  19  20
ENDBRANCH  17  18
ENDBRANCH  13  17
ENDBRANCH   8  10
ENDBRANCH   6   8
BRANCH   7  22
HETATM   22  C17 UNL     1      29.313  10.449  48.908  1.00  0.00     0.038 C 
HETATM   23  C18 UNL     1      30.268  10.824  47.831  1.00  0.00     0.008 C 
ENDBRANCH   7  22
BRANCH   7  24
HETATM   24  C19 UNL     1      27.233   9.537  49.660  1.00  0.00     0.225 C 
HETATM   25  N3  UNL     1      27.765   9.597  50.977  1.00  0.00    -0.270 NA
HETATM   26  H25 UNL     1      28.251   9.512  51.921  1.00  0.00     0.127 HD
HETATM   27  H26 UNL     1      28.253   9.509  51.921  1.00  0.00     0.127 HD
HETATM   28  O2  UNL     1      26.191   9.538  50.403  1.00  0.00    -0.277 OA
ENDBRANCH   7  24
TORSDOF 7
ENDMDL
MODEL 3
REMARK VINA RESULT:      -6.8      3.557      7.337
REMARK  7 active torsions:
REMARK  status: ('A' for Active; 'I' for Inactive)
REMARK    1  A    between atoms: C5_6  and  N2_7 
REMARK    2  A    between atoms: N2_7  and  C6_8 
REMARK    3  A    between atoms: C9_11  and  C10_12 
REMARK    4  A    between atoms: C10_12  and  C11_13 
REMARK    5  A    between atoms: C12_14  and  O1_15 
REMARK    6  A    between atoms: C16_20  and  C17_21 
REMARK    7  A    between atoms: C16_20  and  C19_23 
REMARK       I    between atoms: C19_23  and  N3_24 
ROOT
HETATM    1  C1  UNL     1      24.270  -0.838  54.505  1.00  0.00     0.144 C 
HETATM    2  N1  UNL     1      24.814  -0.407  53.271  1.00  0.00    -0.395 N 
HETATM    3  C2  UNL     1      26.033  -1.051  52.913  1.00  0.00     0.145 C 
HETATM    4  C3  UNL     1      27.094  -0.164  52.364  1.00  0.00    -0.009 C 
HETATM    5  C4  UNL     1      26.770   0.934  51.637  1.00  0.00    -0.002 C 
HETATM    6  C5  UNL     1      25.287   1.031  51.529  1.00  0.00     0.141 C 
HETATM    7  C16 UNL     1      24.747   0.990  52.944  1.00  0.00     0.127 C 
ENDROOT
BRANCH   6   8
HETATM    8  N2  UNL     1      24.801   2.044  50.667  1.00  0.00    -0.379 N 
HETATM    9  H9  UNL     1      23.775   1.927  50.375  1.00  0.00     0.160 HD
BRANCH   8  10
HETATM   10  C6  UNL     1      25.365   3.217  50.084  1.00  0.00     0.030 A 
HETATM   11  C7  UNL     1      26.595   3.267  49.514  1.00  0.00     0.030 A 
HETATM   12  C8  UNL     1      27.180   4.383  48.957  1.00  0.00     0.011 A 
HETATM   13  C9  UNL     1      26.466   5.581  48.966  1.00  0.00    -0.033 A 
HETATM   14  C14 UNL     1      25.227   5.570  49.530  1.00  0.00     0.042 A 
HETATM   15 CL1  UNL     1      24.278   7.035  49.573  1.00  0.00    -0.084 Cl
HETATM   16  C15 UNL     1      24.697   4.423  50.071  1.00  0.00     0.053 A 
BRANCH  13  17
HETATM   17  C10 UNL     1      27.089   6.798  48.368  1.00  0.00     0.069 C 
BRANCH  17  18
HETATM   18  C11 UNL     1      28.530   6.526  48.134  1.00  0.00     0.002 C 
HETATM   19  C12 UNL     1      29.533   7.308  48.409  1.00  0.00     0.130 C 
BRANCH  19  20
HETATM   20  O1  UNL     1      29.419   8.553  48.979  1.00  0.00    -0.368 OA
HETATM   21  C13 UNL     1      30.143   9.654  48.525  1.00  0.00     0.208 C 
ENDBRANCH  19  20
ENDBRANCH  17  18
ENDBRANCH  13  17
ENDBRANCH   8  10
ENDBRANCH   6   8
BRANCH   7  22
HETATM   22  C17 UNL     1      23.395   1.601  52.911  1.00  0.00     0.038 C 
HETATM   23  C18 UNL     1      22.259   0.751  52.463  1.00  0.00     0.008 C 
ENDBRANCH   7  22
BRANCH   7  24
HETATM   24  C19 UNL     1      25.609   1.824  53.792  1.00  0.00     0.225 C 
HETATM   25  N3  UNL     1      25.308   3.212  53.828  1.00  0.00    -0.270 NA
HETATM   26  H25 UNL     1      25.091   4.246  53.692  1.00  0.00     0.127 HD
HETATM   27  H26 UNL     1      25.091   4.247  53.689  1.00  0.00     0.127 HD
HETATM   28  O2  UNL     1      26.492   2.300  54.586  1.00  0.00    -0.277 OA
ENDBRANCH   7  24
TORSDOF 7
ENDMDL
MODEL 4
REMARK VINA RESULT:      -6.6      1.861      2.382
REMARK  7 active torsions:
REMARK  status: ('A' for Active; 'I' for Inactive)
REMARK    1  A    between atoms: C5_6  and  N2_7 
REMARK    2  A    between atoms: N2_7  and  C6_8 
REMARK    3  A    between atoms: C9_11  and  C10_12 
REMARK    4  A    between atoms: C10_12  and  C11_13 
REMARK    5  A    between atoms: C12_14  and  O1_15 
REMARK    6  A    between atoms: C16_20  and  C17_21 
REMARK    7  A    between atoms: C16_20  and  C19_23 
REMARK       I    between atoms: C19_23  and  N3_24 
ROOT
HETATM    1  C1  UNL     1      24.503   8.647  47.616  1.00  0.00     0.144 C 
HETATM    2  N1  UNL     1      24.471   7.259  47.891  1.00  0.00    -0.395 N 
HETATM    3  C2  UNL     1      23.338   6.582  47.354  1.00  0.00     0.145 C 
HETATM    4  C3  UNL     1      22.686   5.598  48.260  1.00  0.00    -0.009 C 
HETATM    5  C4  UNL     1      23.417   4.900  49.164  1.00  0.00    -0.002 C 
HETATM    6  C5  UNL     1      24.848   5.300  49.052  1.00  0.00     0.141 C 
HETATM    7  C16 UNL     1      24.888   6.808  49.190  1.00  0.00     0.127 C 
ENDROOT
BRANCH   6   8
HETATM    8  N2  UNL     1      25.757   4.543  49.829  1.00  0.00    -0.379 N 
HETATM    9  H9  UNL     1      26.762   4.919  49.833  1.00  0.00     0.160 HD
BRANCH   8  10
HETATM   10  C6  UNL     1      25.651   3.370  50.635  1.00  0.00     0.030 A 
HETATM   11  C7  UNL     1      26.655   2.476  50.814  1.00  0.00     0.030 A 
HETATM   12  C8  UNL     1      26.584   1.326  51.568  1.00  0.00     0.011 A 
HETATM   13  C9  UNL     1      25.386   1.030  52.217  1.00  0.00    -0.033 A 
HETATM   14  C14 UNL     1      24.354   1.904  52.062  1.00  0.00     0.042 A 
HETATM   15 CL1  UNL     1      22.826   1.597  52.848  1.00  0.00    -0.084 Cl
HETATM   16  C15 UNL     1      24.486   3.038  51.294  1.00  0.00     0.053 A 
BRANCH  13  17
HETATM   17  C10 UNL     1      25.295  -0.214  53.036  1.00  0.00     0.069 C 
BRANCH  17  18
HETATM   18  C11 UNL     1      25.661   0.114  54.437  1.00  0.00     0.002 C 
HETATM   19  C12 UNL     1      26.822  -0.043  55.005  1.00  0.00     0.130 C 
BRANCH  19  20
HETATM   20  O1  UNL     1      27.933  -0.555  54.380  1.00  0.00    -0.368 OA
HETATM   21  C13 UNL     1      29.073   0.208  54.134  1.00  0.00     0.208 C 
ENDBRANCH  19  20
ENDBRANCH  17  18
ENDBRANCH  13  17
ENDBRANCH   8  10
ENDBRANCH   6   8
BRANCH   7  22
HETATM   22  C17 UNL     1      26.264   7.169  49.609  1.00  0.00     0.038 C 
HETATM   23  C18 UNL     1      27.337   7.131  48.579  1.00  0.00     0.008 C 
ENDBRANCH   7  22
BRANCH   7  24
HETATM   24  C19 UNL     1      23.962   7.198  50.261  1.00  0.00     0.225 C 
HETATM   25  N3  UNL     1      24.442   7.062  51.592  1.00  0.00    -0.270 NA
HETATM   26  H25 UNL     1      24.835   6.807  52.548  1.00  0.00     0.127 HD
HETATM   27  H26 UNL     1      24.836   6.803  52.549  1.00  0.00     0.127 HD
HETATM   28  O2  UNL     1      22.978   7.598  50.976  1.00  0.00    -0.277 OA
ENDBRANCH   7  24
TORSDOF 7
ENDMDL
MODEL 5
REMARK VINA RESULT:      -6.5      4.117      7.279
REMARK  7 active torsions:
REMARK  status: ('A' for Active; 'I' for Inactive)
REMARK    1  A    between atoms: C5_6  and  N2_7 
REMARK    2  A    between atoms: N2_7  and  C6_8 
REMARK    3  A    between atoms: C9_11  and  C10_12 
REMARK    4  A    between atoms: C10_12  and  C11_13 
REMARK    5  A    between atoms: C12_14  and  O1_15 
REMARK    6  A    between atoms: C16_20  and  C17_21 
REMARK    7  A    between atoms: C16_20  and  C19_23 
REMARK       I    between atoms: C19_23  and  N3_24 
ROOT
HETATM    1  C1  UNL     1      22.869   0.619  53.082  1.00  0.00     0.144 C 
HETATM    2  N1  UNL     1      23.972   1.018  52.289  1.00  0.00    -0.395 N 
HETATM    3  C2  UNL     1      25.239   0.626  52.809  1.00  0.00     0.145 C 
HETATM    4  C3  UNL     1      26.307   1.660  52.751  1.00  0.00    -0.009 C 
HETATM    5  C4  UNL     1      26.337   2.568  51.745  1.00  0.00    -0.002 C 
HETATM    6  C5  UNL     1      25.193   2.319  50.824  1.00  0.00     0.141 C 
HETATM    7  C16 UNL     1      23.942   2.318  51.679  1.00  0.00     0.127 C 
ENDROOT
BRANCH   6   8
HETATM    8  N2  UNL     1      25.180   3.093  49.639  1.00  0.00    -0.379 N 
HETATM    9  H9  UNL     1      24.542   2.714  48.865  1.00  0.00     0.160 HD
BRANCH   8  10
HETATM   10  C6  UNL     1      25.828   4.293  49.221  1.00  0.00     0.030 A 
HETATM   11  C7  UNL     1      25.194   5.481  49.054  1.00  0.00     0.030 A 
HETATM   12  C8  UNL     1      25.782   6.655  48.636  1.00  0.00     0.011 A 
HETATM   13  C9  UNL     1      27.147   6.650  48.353  1.00  0.00    -0.033 A 
HETATM   14  C14 UNL     1      27.818   5.476  48.510  1.00  0.00     0.042 A 
HETATM   15 CL1  UNL     1      29.530   5.400  48.175  1.00  0.00    -0.084 Cl
HETATM   16  C15 UNL     1      27.175   4.335  48.930  1.00  0.00     0.053 A 
BRANCH  13  17
HETATM   17  C10 UNL     1      27.796   7.915  47.897  1.00  0.00     0.069 C 
BRANCH  17  18
HETATM   18  C11 UNL     1      28.269   8.661  49.091  1.00  0.00     0.002 C 
HETATM   19  C12 UNL     1      29.425   9.239  49.250  1.00  0.00     0.130 C 
BRANCH  19  20
HETATM   20  O1  UNL     1      30.426   9.252  48.311  1.00  0.00    -0.368 OA
HETATM   21  C13 UNL     1      31.675   8.677  48.538  1.00  0.00     0.208 C 
ENDBRANCH  19  20
ENDBRANCH  17  18
ENDBRANCH  13  17
ENDBRANCH   8  10
ENDBRANCH   6   8
BRANCH   7  22
HETATM   22  C17 UNL     1      22.799   2.605  50.778  1.00  0.00     0.038 C 
HETATM   23  C18 UNL     1      22.285   1.493  49.933  1.00  0.00     0.008 C 
ENDBRANCH   7  22
BRANCH   7  24
HETATM   24  C19 UNL     1      24.048   3.414  52.652  1.00  0.00     0.225 C 
HETATM   25  N3  UNL     1      23.752   4.718  52.169  1.00  0.00    -0.270 NA
HETATM   26  H25 UNL     1      23.640   5.664  51.692  1.00  0.00     0.127 HD
HETATM   27  H26 UNL     1      23.643   5.664  51.689  1.00  0.00     0.127 HD
HETATM   28  O2  UNL     1      24.214   4.158  53.680  1.00  0.00    -0.277 OA
ENDBRANCH   7  24
TORSDOF 7
ENDMDL
MODEL 6
REMARK VINA RESULT:      -6.5      4.426      6.579
REMARK  7 active torsions:
REMARK  status: ('A' for Active; 'I' for Inactive)
REMARK    1  A    between atoms: C5_6  and  N2_7 
REMARK    2  A    between atoms: N2_7  and  C6_8 
REMARK    3  A    between atoms: C9_11  and  C10_12 
REMARK    4  A    between atoms: C10_12  and  C11_13 
REMARK    5  A    between atoms: C12_14  and  O1_15 
REMARK    6  A    between atoms: C16_20  and  C17_21 
REMARK    7  A    between atoms: C16_20  and  C19_23 
REMARK       I    between atoms: C19_23  and  N3_24 
ROOT
HETATM    1  C1  UNL     1      21.475   0.836  50.193  1.00  0.00     0.144 C 
HETATM    2  N1  UNL     1      22.543   1.622  50.690  1.00  0.00    -0.395 N 
HETATM    3  C2  UNL     1      23.154   1.102  51.866  1.00  0.00     0.145 C 
HETATM    4  C3  UNL     1      23.460   2.099  52.928  1.00  0.00    -0.009 C 
HETATM    5  C4  UNL     1      23.788   3.374  52.606  1.00  0.00    -0.002 C 
HETATM    6  C5  UNL     1      23.774   3.525  51.124  1.00  0.00     0.141 C 
HETATM    7  C16 UNL     1      22.414   3.052  50.653  1.00  0.00     0.127 C 
ENDROOT
BRANCH   6   8
HETATM    8  N2  UNL     1      24.248   4.764  50.630  1.00  0.00    -0.379 N 
HETATM    9  H9  UNL     1      23.609   5.601  50.836  1.00  0.00     0.160 HD
BRANCH   8  10
HETATM   10  C6  UNL     1      25.408   5.176  49.910  1.00  0.00     0.030 A 
HETATM   11  C7  UNL     1      26.352   4.325  49.436  1.00  0.00     0.030 A 
HETATM   12  C8  UNL     1      27.492   4.686  48.752  1.00  0.00     0.011 A 
HETATM   13  C9  UNL     1      27.721   6.040  48.511  1.00  0.00    -0.033 A 
HETATM   14  C14 UNL     1      26.795   6.926  48.971  1.00  0.00     0.042 A 
HETATM   15 CL1  UNL     1      27.018   8.637  48.702  1.00  0.00    -0.084 Cl
HETATM   16  C15 UNL     1      25.676   6.504  49.649  1.00  0.00     0.053 A 
BRANCH  13  17
HETATM   17  C10 UNL     1      28.953   6.446  47.774  1.00  0.00     0.069 C 
BRANCH  17  18
HETATM   18  C11 UNL     1      30.028   5.466  48.074  1.00  0.00     0.002 C 
HETATM   19  C12 UNL     1      31.204   5.394  47.521  1.00  0.00     0.130 C 
BRANCH  19  20
HETATM   20  O1  UNL     1      31.657   6.239  46.538  1.00  0.00    -0.368 OA
HETATM   21  C13 UNL     1      32.489   7.324  46.807  1.00  0.00     0.208 C 
ENDBRANCH  19  20
ENDBRANCH  17  18
ENDBRANCH  13  17
ENDBRANCH   8  10
ENDBRANCH   6   8
BRANCH   7  22
HETATM   22  C17 UNL     1      22.177   3.666  49.324  1.00  0.00     0.038 C 
HETATM   23  C18 UNL     1      22.736   2.975  48.131  1.00  0.00     0.008 C 
ENDBRANCH   7  22
BRANCH   7  24
HETATM   24  C19 UNL     1      21.400   3.564  51.585  1.00  0.00     0.225 C 
HETATM   25  N3  UNL     1      21.008   4.919  51.410  1.00  0.00    -0.270 NA
HETATM   26  H25 UNL     1      20.874   5.969  51.288  1.00  0.00     0.127 HD
HETATM   27  H26 UNL     1      20.877   5.971  51.288  1.00  0.00     0.127 HD
HETATM   28  O2  UNL     1      20.530   3.744  52.505  1.00  0.00    -0.277 OA
ENDBRANCH   7  24
TORSDOF 7
ENDMDL
MODEL 7
REMARK VINA RESULT:      -6.4      2.628      3.691
REMARK  7 active torsions:
REMARK  status: ('A' for Active; 'I' for Inactive)
REMARK    1  A    between atoms: C5_6  and  N2_7 
REMARK    2  A    between atoms: N2_7  and  C6_8 
REMARK    3  A    between atoms: C9_11  and  C10_12 
REMARK    4  A    between atoms: C10_12  and  C11_13 
REMARK    5  A    between atoms: C12_14  and  O1_15 
REMARK    6  A    between atoms: C16_20  and  C17_21 
REMARK    7  A    between atoms: C16_20  and  C19_23 
REMARK       I    between atoms: C19_23  and  N3_24 
ROOT
HETATM    1  C1  UNL     1      19.259   4.007  48.059  1.00  0.00     0.144 C 
HETATM    2  N1  UNL     1      20.428   4.162  48.844  1.00  0.00    -0.395 N 
HETATM    3  C2  UNL     1      21.485   4.856  48.188  1.00  0.00     0.145 C 
HETATM    4  C3  UNL     1      22.844   4.276  48.366  1.00  0.00    -0.009 C 
HETATM    5  C4  UNL     1      23.179   3.638  49.513  1.00  0.00    -0.002 C 
HETATM    6  C5  UNL     1      22.014   3.651  50.441  1.00  0.00     0.141 C 
HETATM    7  C16 UNL     1      20.844   3.067  49.676  1.00  0.00     0.127 C 
ENDROOT
BRANCH   6   8
HETATM    8  N2  UNL     1      22.262   3.155  51.744  1.00  0.00    -0.379 N 
HETATM    9  H9  UNL     1      21.627   3.563  52.506  1.00  0.00     0.160 HD
BRANCH   8  10
HETATM   10  C6  UNL     1      23.178   2.212  52.297  1.00  0.00     0.030 A 
HETATM   11  C7  UNL     1      22.868   0.918  52.564  1.00  0.00     0.030 A 
HETATM   12  C8  UNL     1      23.719  -0.016  53.113  1.00  0.00     0.011 A 
HETATM   13  C9  UNL     1      25.019   0.375  53.433  1.00  0.00    -0.033 A 
HETATM   14  C14 UNL     1      25.366   1.667  53.179  1.00  0.00     0.042 A 
HETATM   15 CL1  UNL     1      26.979   2.224  53.553  1.00  0.00    -0.084 Cl
HETATM   16  C15 UNL     1      24.471   2.554  52.629  1.00  0.00     0.053 A 
BRANCH  13  17
HETATM   17  C10 UNL     1      25.949  -0.626  54.031  1.00  0.00     0.069 C 
BRANCH  17  18
HETATM   18  C11 UNL     1      26.627  -1.358  52.930  1.00  0.00     0.002 C 
HETATM   19  C12 UNL     1      27.879  -1.707  52.872  1.00  0.00     0.130 C 
BRANCH  19  20
HETATM   20  O1  UNL     1      28.809  -1.446  53.849  1.00  0.00    -0.368 OA
HETATM   21  C13 UNL     1      29.725  -0.400  53.752  1.00  0.00     0.208 C 
ENDBRANCH  19  20
ENDBRANCH  17  18
ENDBRANCH  13  17
ENDBRANCH   8  10
ENDBRANCH   6   8
BRANCH   7  22
HETATM   22  C17 UNL     1      19.865   2.584  50.680  1.00  0.00     0.038 C 
HETATM   23  C18 UNL     1      19.131   3.602  51.479  1.00  0.00     0.008 C 
ENDBRANCH   7  22
BRANCH   7  24
HETATM   24  C19 UNL     1      21.327   1.911  48.909  1.00  0.00     0.225 C 
HETATM   25  N3  UNL     1      21.323   0.660  49.582  1.00  0.00    -0.270 NA
HETATM   26  H25 UNL     1      21.407  -0.202  50.203  1.00  0.00     0.127 HD
HETATM   27  H26 UNL     1      21.408  -0.202  50.206  1.00  0.00     0.127 HD
HETATM   28  O2  UNL     1      21.783   1.098  48.032  1.00  0.00    -0.277 OA
ENDBRANCH   7  24
TORSDOF 7
ENDMDL
MODEL 8
REMARK VINA RESULT:      -6.4      1.731      2.324
REMARK  7 active torsions:
REMARK  status: ('A' for Active; 'I' for Inactive)
REMARK    1  A    between atoms: C5_6  and  N2_7 
REMARK    2  A    between atoms: N2_7  and  C6_8 
REMARK    3  A    between atoms: C9_11  and  C10_12 
REMARK    4  A    between atoms: C10_12  and  C11_13 
REMARK    5  A    between atoms: C12_14  and  O1_15 
REMARK    6  A    between atoms: C16_20  and  C17_21 
REMARK    7  A    between atoms: C16_20  and  C19_23 
REMARK       I    between atoms: C19_23  and  N3_24 
ROOT
HETATM    1  C1  UNL     1      21.565   7.925  49.895  1.00  0.00     0.144 C 
HETATM    2  N1  UNL     1      22.195   6.757  49.400  1.00  0.00    -0.395 N 
HETATM    3  C2  UNL     1      21.437   6.054  48.421  1.00  0.00     0.145 C 
HETATM    4  C3  UNL     1      21.408   4.573  48.569  1.00  0.00    -0.009 C 
HETATM    5  C4  UNL     1      22.473   3.909  49.081  1.00  0.00    -0.002 C 
HETATM    6  C5  UNL     1      23.546   4.886  49.419  1.00  0.00     0.141 C 
HETATM    7  C16 UNL     1      22.916   5.925  50.323  1.00  0.00     0.127 C 
ENDROOT
BRANCH   6   8
HETATM    8  N2  UNL     1      24.781   4.324  49.821  1.00  0.00    -0.379 N 
HETATM    9  H9  UNL     1      25.647   4.866  49.492  1.00  0.00     0.160 HD
BRANCH   8  10
HETATM   10  C6  UNL     1      25.158   3.181  50.587  1.00  0.00     0.030 A 
HETATM   11  C7  UNL     1      26.441   2.779  50.773  1.00  0.00     0.030 A 
HETATM   12  C8  UNL     1      26.842   1.674  51.490  1.00  0.00     0.011 A 
HETATM   13  C9  UNL     1      25.865   0.879  52.089  1.00  0.00    -0.033 A 
HETATM   14  C14 UNL     1      24.565   1.251  51.924  1.00  0.00     0.042 A 
HETATM   15 CL1  UNL     1      23.290   0.303  52.649  1.00  0.00    -0.084 Cl
HETATM   16  C15 UNL     1      24.227   2.367  51.196  1.00  0.00     0.053 A 
BRANCH  13  17
HETATM   17  C10 UNL     1      26.285  -0.323  52.866  1.00  0.00     0.069 C 
BRANCH  17  18
HETATM   18  C11 UNL     1      26.760   0.120  54.202  1.00  0.00     0.002 C 
HETATM   19  C12 UNL     1      27.991   0.318  54.573  1.00  0.00     0.130 C 
BRANCH  19  20
HETATM   20  O1  UNL     1      29.088   0.143  53.765  1.00  0.00    -0.368 OA
HETATM   21  C13 UNL     1      29.836  -1.033  53.760  1.00  0.00     0.208 C 
ENDBRANCH  19  20
ENDBRANCH  17  18
ENDBRANCH  13  17
ENDBRANCH   8  10
ENDBRANCH   6   8
BRANCH   7  22
HETATM   22  C17 UNL     1      24.018   6.569  51.079  1.00  0.00     0.038 C 
HETATM   23  C18 UNL     1      24.816   7.616  50.386  1.00  0.00     0.008 C 
ENDBRANCH   7  22
BRANCH   7  24
HETATM   24  C19 UNL     1      22.042   5.234  51.281  1.00  0.00     0.225 C 
HETATM   25  N3  UNL     1      22.495   5.182  52.627  1.00  0.00    -0.270 NA
HETATM   26  H25 UNL     1      22.972   5.081  53.574  1.00  0.00     0.127 HD
HETATM   27  H26 UNL     1      22.975   5.079  53.574  1.00  0.00     0.127 HD
HETATM   28  O2  UNL     1      21.114   4.592  51.884  1.00  0.00    -0.277 OA
ENDBRANCH   7  24
TORSDOF 7
ENDMDL
MODEL 9
REMARK VINA RESULT:      -6.4      2.562      3.082
REMARK  7 active torsions:
REMARK  status: ('A' for Active; 'I' for Inactive)
REMARK    1  A    between atoms: C5_6  and  N2_7 
REMARK    2  A    between atoms: N2_7  and  C6_8 
REMARK    3  A    between atoms: C9_11  and  C10_12 
REMARK    4  A    between atoms: C10_12  and  C11_13 
REMARK    5  A    between atoms: C12_14  and  O1_15 
REMARK    6  A    between atoms: C16_20  and  C17_21 
REMARK    7  A    between atoms: C16_20  and  C19_23 
REMARK       I    between atoms: C19_23  and  N3_24 
ROOT
HETATM    1  C1  UNL     1      24.042   7.220  47.055  1.00  0.00     0.144 C 
HETATM    2  N1  UNL     1      23.649   6.749  48.332  1.00  0.00    -0.395 N 
HETATM    3  C2  UNL     1      22.451   7.339  48.829  1.00  0.00     0.145 C 
HETATM    4  C3  UNL     1      22.474   7.732  50.264  1.00  0.00    -0.009 C 
HETATM    5  C4  UNL     1      23.202   7.026  51.163  1.00  0.00    -0.002 C 
HETATM    6  C5  UNL     1      23.889   5.903  50.466  1.00  0.00     0.141 C 
HETATM    7  C16 UNL     1      24.666   6.516  49.319  1.00  0.00     0.127 C 
ENDROOT
BRANCH   6   8
HETATM    8  N2  UNL     1      24.565   4.984  51.303  1.00  0.00    -0.379 N 
HETATM    9  H9  UNL     1      25.474   5.357  51.734  1.00  0.00     0.160 HD
BRANCH   8  10
HETATM   10  C6  UNL     1      24.316   3.644  51.726  1.00  0.00     0.030 A 
HETATM   11  C7  UNL     1      23.136   3.216  52.241  1.00  0.00     0.030 A 
HETATM   12  C8  UNL     1      22.864   1.938  52.675  1.00  0.00     0.011 A 
HETATM   13  C9  UNL     1      23.872   0.978  52.589  1.00  0.00    -0.033 A 
HETATM   14  C14 UNL     1      25.070   1.370  52.076  1.00  0.00     0.042 A 
HETATM   15 CL1  UNL     1      26.376   0.218  51.937  1.00  0.00    -0.084 Cl
HETATM   16  C15 UNL     1      25.283   2.663  51.659  1.00  0.00     0.053 A 
BRANCH  13  17
HETATM   17  C10 UNL     1      23.591  -0.410  53.058  1.00  0.00     0.069 C 
BRANCH  17  18
HETATM   18  C11 UNL     1      22.274  -0.420  53.745  1.00  0.00     0.002 C 
HETATM   19  C12 UNL     1      21.984  -0.986  54.880  1.00  0.00     0.130 C 
BRANCH  19  20
HETATM   20  O1  UNL     1      22.875  -1.689  55.653  1.00  0.00    -0.368 OA
HETATM   21  C13 UNL     1      24.152  -1.213  55.946  1.00  0.00     0.208 C 
ENDBRANCH  19  20
ENDBRANCH  17  18
ENDBRANCH  13  17
ENDBRANCH   8  10
ENDBRANCH   6   8
BRANCH   7  22
HETATM   22  C17 UNL     1      25.736   5.555  48.957  1.00  0.00     0.038 C 
HETATM   23  C18 UNL     1      27.005   6.104  48.407  1.00  0.00     0.008 C 
ENDBRANCH   7  22
BRANCH   7  24
HETATM   24  C19 UNL     1      25.298   7.752  49.799  1.00  0.00     0.225 C 
HETATM   25  N3  UNL     1      26.193   7.619  50.895  1.00  0.00    -0.270 NA
HETATM   26  H25 UNL     1      26.741   7.444  51.791  1.00  0.00     0.127 HD
HETATM   27  H26 UNL     1      26.739   7.442  51.794  1.00  0.00     0.127 HD
HETATM   28  O2  UNL     1      25.696   8.950  50.007  1.00  0.00    -0.277 OA
ENDBRANCH   7  24
TORSDOF 7
ENDMDL
