MODEL 1
REMARK VINA RESULT:      -9.8      0.000      0.000
REMARK  4 active torsions:
REMARK  status: ('A' for Active; 'I' for Inactive)
REMARK    1  A    between atoms: C2_2  and  O1_3 
REMARK    2  A    between atoms: O1_3  and  C3_4 
REMARK    3  A    between atoms: C9_12  and  N3_13 
REMARK       I    between atoms: N3_13  and  C10_14 
REMARK    4  A    between atoms: C10_14  and  C11_16 
ROOT
HETATM    1  C3  UNL     1      24.929   2.813  51.423  1.00  0.00     0.222 C 
HETATM    2  C4  UNL     1      24.057   3.763  52.200  1.00  0.00     0.188 C 
HETATM    3  N1  UNL     1      23.191   4.181  51.461  1.00  0.00    -0.434 NA
HETATM    4  C5  UNL     1      22.356   4.521  50.566  1.00  0.00     0.445 C 
HETATM    5  N2  UNL     1      21.583   3.504  50.429  1.00  0.00    -0.262 NA
HETATM    6  C6  UNL     1      21.785   2.342  51.211  1.00  0.00     0.057 C 
HETATM    7  C7  UNL     1      22.989   1.938  51.647  1.00  0.00     0.092 C 
HETATM    8  C8  UNL     1      23.880   0.989  52.388  1.00  0.00    -0.039 C 
HETATM    9  C9  UNL     1      25.086   1.574  52.221  1.00  0.00     0.050 C 
HETATM   10  C14 UNL     1      23.520  -0.300  53.089  1.00  0.00     0.064 C 
HETATM   11  C15 UNL     1      22.583  -0.092  54.242  1.00  0.00    -0.026 C 
HETATM   12  C16 UNL     1      21.297  -0.527  54.446  1.00  0.00    -0.025 C 
HETATM   13  C17 UNL     1      20.557  -1.340  53.462  1.00  0.00     0.077 C 
HETATM   14  C18 UNL     1      19.299  -0.830  52.962  1.00  0.00     0.013 C 
HETATM   15 CL1  UNL     1      17.733  -1.210  53.657  1.00  0.00    -0.089 Cl
HETATM   16  C19 UNL     1      19.004   0.003  51.926  1.00  0.00     0.012 C 
HETATM   17  C20 UNL     1      20.267   0.423  51.243  1.00  0.00     0.149 C 
HETATM   18  N5  UNL     1      20.440   1.864  51.390  1.00  0.00    -0.381 N 
HETATM   19  H24 UNL     1      19.595   2.424  51.617  1.00  0.00     0.160 HD
ENDROOT
BRANCH   9  20
HETATM   20  N3  UNL     1      26.158   0.897  52.845  1.00  0.00    -0.326 N 
HETATM   21  C10 UNL     1      27.116   1.393  53.807  1.00  0.00     0.247 C 
HETATM   22  O2  UNL     1      27.011   2.585  54.171  1.00  0.00    -0.271 OA
HETATM   23  H10 UNL     1      26.412  -0.093  52.693  1.00  0.00     0.168 HD
BRANCH  21  24
HETATM   24  C11 UNL     1      28.217   0.586  54.392  1.00  0.00     0.203 C 
HETATM   25  C12 UNL     1      29.472   0.641  53.567  1.00  0.00     0.215 C 
HETATM   26  O3  UNL     1      29.989  -0.668  53.705  1.00  0.00    -0.301 OA
HETATM   27  C13 UNL     1      28.895  -1.516  53.580  1.00  0.00     0.361 C 
HETATM   28  O4  UNL     1      28.636  -2.628  53.009  1.00  0.00    -0.238 OA
HETATM   29  N4  UNL     1      27.886  -0.837  54.331  1.00  0.00    -0.321 N 
HETATM   30  H14 UNL     1      27.039  -1.267  54.773  1.00  0.00     0.165 HD
ENDBRANCH  21  24
ENDBRANCH   9  20
BRANCH   1  31
HETATM   31  O1  UNL     1      26.089   3.387  50.977  1.00  0.00    -0.374 OA
BRANCH  31  32
HETATM   32  C2  UNL     1      26.204   3.290  49.575  1.00  0.00     0.165 C 
HETATM   33  C1  UNL     1      27.078   4.413  49.035  1.00  0.00     0.033 C 
ENDBRANCH  31  32
ENDBRANCH   1  31
TORSDOF 4
ENDMDL
MODEL 2
REMARK VINA RESULT:      -9.6      2.095      5.560
REMARK  4 active torsions:
REMARK  status: ('A' for Active; 'I' for Inactive)
REMARK    1  A    between atoms: C2_2  and  O1_3 
REMARK    2  A    between atoms: O1_3  and  C3_4 
REMARK    3  A    between atoms: C9_12  and  N3_13 
REMARK       I    between atoms: N3_13  and  C10_14 
REMARK    4  A    between atoms: C10_14  and  C11_16 
ROOT
HETATM    1  C3  UNL     1      26.626   1.752  52.414  1.00  0.00     0.222 C 
HETATM    2  C4  UNL     1      26.572   0.360  51.843  1.00  0.00     0.188 C 
HETATM    3  N1  UNL     1      26.584  -0.433  52.760  1.00  0.00    -0.434 NA
HETATM    4  C5  UNL     1      26.603  -1.126  53.825  1.00  0.00     0.445 C 
HETATM    5  N2  UNL     1      25.426  -1.000  54.325  1.00  0.00    -0.262 NA
HETATM    6  C6  UNL     1      24.452  -0.209  53.670  1.00  0.00     0.057 C 
HETATM    7  C7  UNL     1      24.745   0.870  52.928  1.00  0.00     0.092 C 
HETATM    8  C8  UNL     1      24.354   2.031  52.066  1.00  0.00    -0.039 C 
HETATM    9  C9  UNL     1      25.563   2.557  51.768  1.00  0.00     0.050 C 
HETATM   10  C14 UNL     1      22.972   2.506  51.682  1.00  0.00     0.064 C 
HETATM   11  C15 UNL     1      22.217   1.495  50.869  1.00  0.00    -0.026 C 
HETATM   12  C16 UNL     1      21.061   0.806  51.140  1.00  0.00    -0.025 C 
HETATM   13  C17 UNL     1      20.311   0.958  52.400  1.00  0.00     0.077 C 
HETATM   14  C18 UNL     1      20.083  -0.222  53.206  1.00  0.00     0.013 C 
HETATM   15 CL1  UNL     1      18.652  -1.231  53.098  1.00  0.00    -0.089 Cl
HETATM   16  C19 UNL     1      20.834  -0.822  54.171  1.00  0.00     0.012 C 
HETATM   17  C20 UNL     1      22.109  -0.062  54.360  1.00  0.00     0.149 C 
HETATM   18  N5  UNL     1      23.236  -0.910  53.988  1.00  0.00    -0.381 N 
HETATM   19  H24 UNL     1      23.075  -1.936  53.974  1.00  0.00     0.160 HD
ENDROOT
BRANCH   9  20
HETATM   20  N3  UNL     1      25.517   3.690  50.924  1.00  0.00    -0.326 N 
HETATM   21  C10 UNL     1      26.208   3.930  49.677  1.00  0.00     0.247 C 
HETATM   22  O2  UNL     1      26.955   3.026  49.243  1.00  0.00    -0.271 OA
HETATM   23  H10 UNL     1      24.955   4.540  51.093  1.00  0.00     0.168 HD
BRANCH  21  24
HETATM   24  C11 UNL     1      26.090   5.175  48.876  1.00  0.00     0.203 C 
HETATM   25  C12 UNL     1      27.429   5.766  48.533  1.00  0.00     0.215 C 
HETATM   26  O3  UNL     1      27.177   7.156  48.599  1.00  0.00    -0.301 OA
HETATM   27  C13 UNL     1      26.403   7.341  49.739  1.00  0.00     0.361 C 
HETATM   28  O4  UNL     1      26.342   8.178  50.700  1.00  0.00    -0.238 OA
HETATM   29  N4  UNL     1      25.494   6.239  49.682  1.00  0.00    -0.321 N 
HETATM   30  H14 UNL     1      24.552   6.181  50.136  1.00  0.00     0.165 HD
ENDBRANCH  21  24
ENDBRANCH   9  20
BRANCH   1  31
HETATM   31  O1  UNL     1      27.882   2.296  52.393  1.00  0.00    -0.374 OA
BRANCH  31  32
HETATM   32  C2  UNL     1      28.388   2.467  53.698  1.00  0.00     0.165 C 
HETATM   33  C1  UNL     1      29.378   1.361  54.032  1.00  0.00     0.033 C 
ENDBRANCH  31  32
ENDBRANCH   1  31
TORSDOF 4
ENDMDL
MODEL 3
REMARK VINA RESULT:      -8.5      4.142      7.550
REMARK  4 active torsions:
REMARK  status: ('A' for Active; 'I' for Inactive)
REMARK    1  A    between atoms: C2_2  and  O1_3 
REMARK    2  A    between atoms: O1_3  and  C3_4 
REMARK    3  A    between atoms: C9_12  and  N3_13 
REMARK       I    between atoms: N3_13  and  C10_14 
REMARK    4  A    between atoms: C10_14  and  C11_16 
ROOT
HETATM    1  C3  UNL     1      20.619   1.359  52.676  1.00  0.00     0.222 C 
HETATM    2  C4  UNL     1      20.818   0.975  54.118  1.00  0.00     0.188 C 
HETATM    3  N1  UNL     1      20.952  -0.228  54.181  1.00  0.00    -0.434 NA
HETATM    4  C5  UNL     1      21.073  -1.489  54.075  1.00  0.00     0.445 C 
HETATM    5  N2  UNL     1      22.248  -1.671  53.588  1.00  0.00    -0.262 NA
HETATM    6  C6  UNL     1      23.081  -0.564  53.299  1.00  0.00     0.057 C 
HETATM    7  C7  UNL     1      22.618   0.639  52.925  1.00  0.00     0.092 C 
HETATM    8  C8  UNL     1      22.817   2.065  52.512  1.00  0.00    -0.039 C 
HETATM    9  C9  UNL     1      21.539   2.478  52.365  1.00  0.00     0.050 C 
HETATM   10  C14 UNL     1      24.107   2.815  52.279  1.00  0.00     0.064 C 
HETATM   11  C15 UNL     1      24.943   2.934  53.520  1.00  0.00    -0.026 C 
HETATM   12  C16 UNL     1      26.187   2.439  53.816  1.00  0.00    -0.025 C 
HETATM   13  C17 UNL     1      26.975   1.624  52.872  1.00  0.00     0.077 C 
HETATM   14  C18 UNL     1      27.389   0.302  53.291  1.00  0.00     0.013 C 
HETATM   15 CL1  UNL     1      28.928  -0.055  54.053  1.00  0.00    -0.089 Cl
HETATM   16  C19 UNL     1      26.768  -0.908  53.224  1.00  0.00     0.012 C 
HETATM   17  C20 UNL     1      25.418  -0.747  52.598  1.00  0.00     0.149 C 
HETATM   18  N5  UNL     1      24.390  -1.097  53.572  1.00  0.00    -0.381 N 
HETATM   19  H24 UNL     1      24.678  -1.686  54.377  1.00  0.00     0.160 HD
ENDROOT
BRANCH   9  20
HETATM   20  N3  UNL     1      21.399   3.832  51.986  1.00  0.00    -0.326 N 
HETATM   21  C10 UNL     1      21.107   4.393  50.687  1.00  0.00     0.247 C 
HETATM   22  O2  UNL     1      20.937   3.599  49.736  1.00  0.00    -0.271 OA
HETATM   23  H10 UNL     1      21.489   4.644  52.619  1.00  0.00     0.168 HD
BRANCH  21  24
HETATM   24  C11 UNL     1      20.993   5.846  50.403  1.00  0.00     0.203 C 
HETATM   25  C12 UNL     1      21.585   6.220  49.073  1.00  0.00     0.215 C 
HETATM   26  O3  UNL     1      22.150   7.490  49.334  1.00  0.00    -0.301 OA
HETATM   27  C13 UNL     1      22.776   7.372  50.569  1.00  0.00     0.361 C 
HETATM   28  O4  UNL     1      23.872   7.754  51.101  1.00  0.00    -0.238 OA
HETATM   29  N4  UNL     1      21.834   6.607  51.325  1.00  0.00    -0.321 N 
HETATM   30  H14 UNL     1      21.744   6.580  52.368  1.00  0.00     0.165 HD
ENDBRANCH  21  24
ENDBRANCH   9  20
BRANCH   1  31
HETATM   31  O1  UNL     1      19.304   1.558  52.348  1.00  0.00    -0.374 OA
BRANCH  31  32
HETATM   32  C2  UNL     1      18.899   0.695  51.309  1.00  0.00     0.165 C 
HETATM   33  C1  UNL     1      18.097  -0.471  51.869  1.00  0.00     0.033 C 
ENDBRANCH  31  32
ENDBRANCH   1  31
TORSDOF 4
ENDMDL
MODEL 4
REMARK VINA RESULT:      -8.5      4.085      6.097
REMARK  4 active torsions:
REMARK  status: ('A' for Active; 'I' for Inactive)
REMARK    1  A    between atoms: C2_2  and  O1_3 
REMARK    2  A    between atoms: O1_3  and  C3_4 
REMARK    3  A    between atoms: C9_12  and  N3_13 
REMARK       I    between atoms: N3_13  and  C10_14 
REMARK    4  A    between atoms: C10_14  and  C11_16 
ROOT
HETATM    1  C3  UNL     1      24.227   5.909  49.455  1.00  0.00     0.222 C 
HETATM    2  C4  UNL     1      24.078   6.305  50.900  1.00  0.00     0.188 C 
HETATM    3  N1  UNL     1      22.962   6.005  51.268  1.00  0.00    -0.434 NA
HETATM    4  C5  UNL     1      21.768   5.632  51.492  1.00  0.00     0.445 C 
HETATM    5  N2  UNL     1      21.830   4.351  51.574  1.00  0.00    -0.262 NA
HETATM    6  C6  UNL     1      23.068   3.683  51.418  1.00  0.00     0.057 C 
HETATM    7  C7  UNL     1      24.064   4.134  50.640  1.00  0.00     0.092 C 
HETATM    8  C8  UNL     1      25.436   4.026  50.049  1.00  0.00    -0.039 C 
HETATM    9  C9  UNL     1      25.497   5.157  49.312  1.00  0.00     0.050 C 
HETATM   10  C14 UNL     1      26.452   2.919  50.203  1.00  0.00     0.064 C 
HETATM   11  C15 UNL     1      26.920   2.754  51.620  1.00  0.00    -0.026 C 
HETATM   12  C16 UNL     1      26.790   1.704  52.493  1.00  0.00    -0.025 C 
HETATM   13  C17 UNL     1      26.092   0.451  52.147  1.00  0.00     0.077 C 
HETATM   14  C18 UNL     1      24.975   0.042  52.969  1.00  0.00     0.013 C 
HETATM   15 CL1  UNL     1      25.105  -1.038  54.346  1.00  0.00    -0.089 Cl
HETATM   16  C19 UNL     1      23.648   0.347  52.917  1.00  0.00     0.012 C 
HETATM   17  C20 UNL     1      23.393   1.285  51.780  1.00  0.00     0.149 C 
HETATM   18  N5  UNL     1      22.914   2.560  52.304  1.00  0.00    -0.381 N 
HETATM   19  H24 UNL     1      22.515   2.560  53.262  1.00  0.00     0.160 HD
ENDROOT
BRANCH   9  20
HETATM   20  N3  UNL     1      26.719   5.349  48.630  1.00  0.00    -0.326 N 
HETATM   21  C10 UNL     1      27.564   6.521  48.579  1.00  0.00     0.247 C 
HETATM   22  O2  UNL     1      27.200   7.528  49.225  1.00  0.00    -0.271 OA
HETATM   23  H10 UNL     1      27.198   4.642  48.049  1.00  0.00     0.168 HD
BRANCH  21  24
HETATM   24  C11 UNL     1      28.833   6.611  47.813  1.00  0.00     0.203 C 
HETATM   25  C12 UNL     1      29.741   5.441  48.065  1.00  0.00     0.215 C 
HETATM   26  O3  UNL     1      31.024   6.034  48.034  1.00  0.00    -0.301 OA
HETATM   27  C13 UNL     1      30.904   7.219  48.749  1.00  0.00     0.361 C 
HETATM   28  O4  UNL     1      31.594   7.867  49.606  1.00  0.00    -0.238 OA
HETATM   29  N4  UNL     1      29.642   7.725  48.308  1.00  0.00    -0.321 N 
HETATM   30  H14 UNL     1      29.325   8.723  48.328  1.00  0.00     0.165 HD
ENDBRANCH  21  24
ENDBRANCH   9  20
BRANCH   1  31
HETATM   31  O1  UNL     1      24.052   6.954  48.589  1.00  0.00    -0.374 OA
BRANCH  31  32
HETATM   32  C2  UNL     1      23.443   6.530  47.390  1.00  0.00     0.165 C 
HETATM   33  C1  UNL     1      22.214   5.685  47.689  1.00  0.00     0.033 C 
ENDBRANCH  31  32
ENDBRANCH   1  31
TORSDOF 4
ENDMDL
MODEL 5
REMARK VINA RESULT:      -8.5      2.978      5.426
REMARK  4 active torsions:
REMARK  status: ('A' for Active; 'I' for Inactive)
REMARK    1  A    between atoms: C2_2  and  O1_3 
REMARK    2  A    between atoms: O1_3  and  C3_4 
REMARK    3  A    between atoms: C9_12  and  N3_13 
REMARK       I    between atoms: N3_13  and  C10_14 
REMARK    4  A    between atoms: C10_14  and  C11_16 
ROOT
HETATM    1  C3  UNL     1      22.323   0.990  52.115  1.00  0.00     0.222 C 
HETATM    2  C4  UNL     1      21.564   0.975  50.814  1.00  0.00     0.188 C 
HETATM    3  N1  UNL     1      20.474   1.471  50.999  1.00  0.00    -0.434 NA
HETATM    4  C5  UNL     1      19.381   2.011  51.358  1.00  0.00     0.445 C 
HETATM    5  N2  UNL     1      19.655   3.260  51.490  1.00  0.00    -0.262 NA
HETATM    6  C6  UNL     1      20.964   3.735  51.239  1.00  0.00     0.057 C 
HETATM    7  C7  UNL     1      22.073   3.006  51.442  1.00  0.00     0.092 C 
HETATM    8  C8  UNL     1      23.559   2.821  51.425  1.00  0.00    -0.039 C 
HETATM    9  C9  UNL     1      23.672   1.545  51.855  1.00  0.00     0.050 C 
HETATM   10  C14 UNL     1      24.635   3.819  51.068  1.00  0.00     0.064 C 
HETATM   11  C15 UNL     1      24.556   4.273  49.639  1.00  0.00    -0.026 C 
HETATM   12  C16 UNL     1      24.312   5.512  49.102  1.00  0.00    -0.025 C 
HETATM   13  C17 UNL     1      24.055   6.709  49.923  1.00  0.00     0.077 C 
HETATM   14  C18 UNL     1      22.812   7.422  49.722  1.00  0.00     0.013 C 
HETATM   15 CL1  UNL     1      22.619   8.783  48.632  1.00  0.00    -0.089 Cl
HETATM   16  C19 UNL     1      21.572   7.255  50.261  1.00  0.00     0.012 C 
HETATM   17  C20 UNL     1      21.588   6.101  51.213  1.00  0.00     0.149 C 
HETATM   18  N5  UNL     1      20.709   5.050  50.713  1.00  0.00    -0.381 N 
HETATM   19  H24 UNL     1      19.984   5.324  50.021  1.00  0.00     0.160 HD
ENDROOT
BRANCH   9  20
HETATM   20  N3  UNL     1      25.000   1.066  51.927  1.00  0.00    -0.326 N 
HETATM   21  C10 UNL     1      25.990   1.267  52.960  1.00  0.00     0.247 C 
HETATM   22  O2  UNL     1      25.661   1.950  53.955  1.00  0.00    -0.271 OA
HETATM   23  H10 UNL     1      25.463   0.476  51.216  1.00  0.00     0.168 HD
BRANCH  21  24
HETATM   24  C11 UNL     1      27.369   0.718  52.923  1.00  0.00     0.203 C 
HETATM   25  C12 UNL     1      27.649  -0.210  54.072  1.00  0.00     0.215 C 
HETATM   26  O3  UNL     1      29.005   0.066  54.367  1.00  0.00    -0.301 OA
HETATM   27  C13 UNL     1      29.124   1.449  54.309  1.00  0.00     0.361 C 
HETATM   28  O4  UNL     1      29.708   2.365  54.979  1.00  0.00    -0.238 OA
HETATM   29  N4  UNL     1      28.342   1.783  53.160  1.00  0.00    -0.321 N 
HETATM   30  H14 UNL     1      28.432   2.644  52.570  1.00  0.00     0.165 HD
ENDBRANCH  21  24
ENDBRANCH   9  20
BRANCH   1  31
HETATM   31  O1  UNL     1      22.289  -0.210  52.773  1.00  0.00    -0.374 OA
BRANCH  31  32
HETATM   32  C2  UNL     1      21.951  -0.040  54.131  1.00  0.00     0.165 C 
HETATM   33  C1  UNL     1      22.361  -1.264  54.937  1.00  0.00     0.033 C 
ENDBRANCH  31  32
ENDBRANCH   1  31
TORSDOF 4
ENDMDL
MODEL 6
REMARK VINA RESULT:      -8.2      3.490      6.139
REMARK  4 active torsions:
REMARK  status: ('A' for Active; 'I' for Inactive)
REMARK    1  A    between atoms: C2_2  and  O1_3 
REMARK    2  A    between atoms: O1_3  and  C3_4 
REMARK    3  A    between atoms: C9_12  and  N3_13 
REMARK       I    between atoms: N3_13  and  C10_14 
REMARK    4  A    between atoms: C10_14  and  C11_16 
ROOT
HETATM    1  C3  UNL     1      22.693   2.105  50.656  1.00  0.00     0.222 C 
HETATM    2  C4  UNL     1      22.463   2.148  49.168  1.00  0.00     0.188 C 
HETATM    3  N1  UNL     1      21.603   2.970  48.935  1.00  0.00    -0.434 NA
HETATM    4  C5  UNL     1      20.696   3.857  48.862  1.00  0.00     0.445 C 
HETATM    5  N2  UNL     1      21.302   4.971  49.069  1.00  0.00    -0.262 NA
HETATM    6  C6  UNL     1      22.697   4.992  49.308  1.00  0.00     0.057 C 
HETATM    7  C7  UNL     1      23.364   3.996  49.912  1.00  0.00     0.092 C 
HETATM    8  C8  UNL     1      24.618   3.372  50.442  1.00  0.00    -0.039 C 
HETATM    9  C9  UNL     1      24.152   2.189  50.900  1.00  0.00     0.050 C 
HETATM   10  C14 UNL     1      26.016   3.943  50.490  1.00  0.00     0.064 C 
HETATM   11  C15 UNL     1      26.582   4.207  49.125  1.00  0.00    -0.026 C 
HETATM   12  C16 UNL     1      26.958   5.380  48.520  1.00  0.00    -0.025 C 
HETATM   13  C17 UNL     1      26.845   6.696  49.175  1.00  0.00     0.077 C 
HETATM   14  C18 UNL     1      26.053   7.717  48.524  1.00  0.00     0.013 C 
HETATM   15 CL1  UNL     1      26.702   8.918  47.421  1.00  0.00    -0.089 Cl
HETATM   16  C19 UNL     1      24.722   8.004  48.574  1.00  0.00     0.012 C 
HETATM   17  C20 UNL     1      24.032   7.035  49.481  1.00  0.00     0.149 C 
HETATM   18  N5  UNL     1      23.083   6.241  48.708  1.00  0.00    -0.381 N 
HETATM   19  H24 UNL     1      22.772   6.628  47.795  1.00  0.00     0.160 HD
ENDROOT
BRANCH   9  20
HETATM   20  N3  UNL     1      25.139   1.346  51.458  1.00  0.00    -0.326 N 
HETATM   21  C10 UNL     1      25.613   1.271  52.821  1.00  0.00     0.247 C 
HETATM   22  O2  UNL     1      25.094   2.040  53.660  1.00  0.00    -0.271 OA
HETATM   23  H10 UNL     1      25.679   0.632  50.942  1.00  0.00     0.168 HD
BRANCH  21  24
HETATM   24  C11 UNL     1      26.672   0.344  53.295  1.00  0.00     0.203 C 
HETATM   25  C12 UNL     1      26.554   0.039  54.762  1.00  0.00     0.215 C 
HETATM   26  O3  UNL     1      27.906  -0.051  55.167  1.00  0.00    -0.301 OA
HETATM   27  C13 UNL     1      28.554   1.007  54.541  1.00  0.00     0.361 C 
HETATM   28  O4  UNL     1      29.438   1.875  54.849  1.00  0.00    -0.238 OA
HETATM   29  N4  UNL     1      27.978   0.997  53.232  1.00  0.00    -0.321 N 
HETATM   30  H14 UNL     1      28.403   1.388  52.359  1.00  0.00     0.165 HD
ENDBRANCH  21  24
ENDBRANCH   9  20
BRANCH   1  31
HETATM   31  O1  UNL     1      22.043   1.069  51.271  1.00  0.00    -0.374 OA
BRANCH  31  32
HETATM   32  C2  UNL     1      21.603   1.433  52.560  1.00  0.00     0.165 C 
HETATM   33  C1  UNL     1      20.675   2.636  52.484  1.00  0.00     0.033 C 
ENDBRANCH  31  32
ENDBRANCH   1  31
TORSDOF 4
ENDMDL
MODEL 7
REMARK VINA RESULT:      -8.2      2.050      2.559
REMARK  4 active torsions:
REMARK  status: ('A' for Active; 'I' for Inactive)
REMARK    1  A    between atoms: C2_2  and  O1_3 
REMARK    2  A    between atoms: O1_3  and  C3_4 
REMARK    3  A    between atoms: C9_12  and  N3_13 
REMARK       I    between atoms: N3_13  and  C10_14 
REMARK    4  A    between atoms: C10_14  and  C11_16 
ROOT
HETATM    1  C3  UNL     1      24.815   4.102  49.742  1.00  0.00     0.222 C 
HETATM    2  C4  UNL     1      23.766   5.181  49.804  1.00  0.00     0.188 C 
HETATM    3  N1  UNL     1      23.157   5.186  48.755  1.00  0.00    -0.434 NA
HETATM    4  C5  UNL     1      22.623   5.061  47.609  1.00  0.00     0.445 C 
HETATM    5  N2  UNL     1      21.911   3.994  47.688  1.00  0.00    -0.262 NA
HETATM    6  C6  UNL     1      21.864   3.254  48.893  1.00  0.00     0.057 C 
HETATM    7  C7  UNL     1      22.883   3.182  49.763  1.00  0.00     0.092 C 
HETATM    8  C8  UNL     1      23.509   2.695  51.034  1.00  0.00    -0.039 C 
HETATM    9  C9  UNL     1      24.719   3.294  50.980  1.00  0.00     0.050 C 
HETATM   10  C14 UNL     1      22.945   1.747  52.067  1.00  0.00     0.064 C 
HETATM   11  C15 UNL     1      21.715   2.285  52.739  1.00  0.00    -0.026 C 
HETATM   12  C16 UNL     1      20.421   1.829  52.743  1.00  0.00    -0.025 C 
HETATM   13  C17 UNL     1      19.990   0.625  52.008  1.00  0.00     0.077 C 
HETATM   14  C18 UNL     1      18.938   0.764  51.025  1.00  0.00     0.013 C 
HETATM   15 CL1  UNL     1      17.234   0.518  51.362  1.00  0.00    -0.089 Cl
HETATM   16  C19 UNL     1      18.967   1.094  49.704  1.00  0.00     0.012 C 
HETATM   17  C20 UNL     1      20.379   1.348  49.280  1.00  0.00     0.149 C 
HETATM   18  N5  UNL     1      20.519   2.743  48.877  1.00  0.00    -0.381 N 
HETATM   19  H24 UNL     1      19.651   3.253  48.622  1.00  0.00     0.160 HD
ENDROOT
BRANCH   9  20
HETATM   20  N3  UNL     1      25.554   3.030  52.089  1.00  0.00    -0.326 N 
HETATM   21  C10 UNL     1      26.722   2.182  52.172  1.00  0.00     0.247 C 
HETATM   22  O2  UNL     1      27.082   1.585  51.134  1.00  0.00    -0.271 OA
HETATM   23  H10 UNL     1      25.439   3.430  53.034  1.00  0.00     0.168 HD
BRANCH  21  24
HETATM   24  C11 UNL     1      27.523   1.971  53.404  1.00  0.00     0.203 C 
HETATM   25  C12 UNL     1      28.472   0.812  53.281  1.00  0.00     0.215 C 
HETATM   26  O3  UNL     1      28.454   0.260  54.583  1.00  0.00    -0.301 OA
HETATM   27  C13 UNL     1      27.119   0.262  54.970  1.00  0.00     0.361 C 
HETATM   28  O4  UNL     1      26.322  -0.527  55.579  1.00  0.00    -0.238 OA
HETATM   29  N4  UNL     1      26.658   1.530  54.498  1.00  0.00    -0.321 N 
HETATM   30  H14 UNL     1      25.839   2.073  54.860  1.00  0.00     0.165 HD
ENDBRANCH  21  24
ENDBRANCH   9  20
BRANCH   1  31
HETATM   31  O1  UNL     1      26.061   4.580  49.436  1.00  0.00    -0.374 OA
BRANCH  31  32
HETATM   32  C2  UNL     1      26.087   5.990  49.448  1.00  0.00     0.165 C 
HETATM   33  C1  UNL     1      27.052   6.511  48.394  1.00  0.00     0.033 C 
ENDBRANCH  31  32
ENDBRANCH   1  31
TORSDOF 4
ENDMDL
MODEL 8
REMARK VINA RESULT:      -8.1      3.939      8.033
REMARK  4 active torsions:
REMARK  status: ('A' for Active; 'I' for Inactive)
REMARK    1  A    between atoms: C2_2  and  O1_3 
REMARK    2  A    between atoms: O1_3  and  C3_4 
REMARK    3  A    between atoms: C9_12  and  N3_13 
REMARK       I    between atoms: N3_13  and  C10_14 
REMARK    4  A    between atoms: C10_14  and  C11_16 
ROOT
HETATM    1  C3  UNL     1      23.643   0.548  52.446  1.00  0.00     0.222 C 
HETATM    2  C4  UNL     1      24.154   1.554  53.443  1.00  0.00     0.188 C 
HETATM    3  N1  UNL     1      25.366   1.522  53.436  1.00  0.00    -0.434 NA
HETATM    4  C5  UNL     1      26.620   1.365  53.308  1.00  0.00     0.445 C 
HETATM    5  N2  UNL     1      26.913   1.928  52.190  1.00  0.00    -0.262 NA
HETATM    6  C6  UNL     1      25.903   2.541  51.412  1.00  0.00     0.057 C 
HETATM    7  C7  UNL     1      24.627   2.126  51.387  1.00  0.00     0.092 C 
HETATM    8  C8  UNL     1      23.211   2.223  50.907  1.00  0.00    -0.039 C 
HETATM    9  C9  UNL     1      22.630   1.215  51.595  1.00  0.00     0.050 C 
HETATM   10  C14 UNL     1      22.616   3.168  49.890  1.00  0.00     0.064 C 
HETATM   11  C15 UNL     1      22.695   4.605  50.316  1.00  0.00    -0.026 C 
HETATM   12  C16 UNL     1      23.365   5.669  49.767  1.00  0.00    -0.025 C 
HETATM   13  C17 UNL     1      24.202   5.556  48.558  1.00  0.00     0.077 C 
HETATM   14  C18 UNL     1      25.593   5.945  48.651  1.00  0.00     0.013 C 
HETATM   15 CL1  UNL     1      26.197   7.548  48.272  1.00  0.00    -0.089 Cl
HETATM   16  C19 UNL     1      26.706   5.254  49.022  1.00  0.00     0.012 C 
HETATM   17  C20 UNL     1      26.330   3.854  49.392  1.00  0.00     0.149 C 
HETATM   18  N5  UNL     1      26.616   3.633  50.805  1.00  0.00    -0.381 N 
HETATM   19  H24 UNL     1      27.295   4.276  51.259  1.00  0.00     0.160 HD
ENDROOT
BRANCH   9  20
HETATM   20  N3  UNL     1      21.245   1.065  51.358  1.00  0.00    -0.326 N 
HETATM   21  C10 UNL     1      20.128   1.644  52.071  1.00  0.00     0.247 C 
HETATM   22  O2  UNL     1      20.382   2.397  53.037  1.00  0.00    -0.271 OA
HETATM   23  H10 UNL     1      20.823   0.497  50.605  1.00  0.00     0.168 HD
BRANCH  21  24
HETATM   24  C11 UNL     1      18.701   1.406  51.736  1.00  0.00     0.203 C 
HETATM   25  C12 UNL     1      18.504   0.168  50.906  1.00  0.00     0.215 C 
HETATM   26  O3  UNL     1      17.449   0.542  50.042  1.00  0.00    -0.301 OA
HETATM   27  C13 UNL     1      17.745   1.835  49.630  1.00  0.00     0.361 C 
HETATM   28  O4  UNL     1      17.694   2.504  48.543  1.00  0.00    -0.238 OA
HETATM   29  N4  UNL     1      18.215   2.448  50.833  1.00  0.00    -0.321 N 
HETATM   30  H14 UNL     1      18.221   3.472  51.053  1.00  0.00     0.165 HD
ENDBRANCH  21  24
ENDBRANCH   9  20
BRANCH   1  31
HETATM   31  O1  UNL     1      23.256  -0.632  53.022  1.00  0.00    -0.374 OA
BRANCH  31  32
HETATM   32  C2  UNL     1      22.522  -0.408  54.205  1.00  0.00     0.165 C 
HETATM   33  C1  UNL     1      21.285  -1.294  54.238  1.00  0.00     0.033 C 
ENDBRANCH  31  32
ENDBRANCH   1  31
TORSDOF 4
ENDMDL
MODEL 9
REMARK VINA RESULT:      -8.0      3.930      7.068
REMARK  4 active torsions:
REMARK  status: ('A' for Active; 'I' for Inactive)
REMARK    1  A    between atoms: C2_2  and  O1_3 
REMARK    2  A    between atoms: O1_3  and  C3_4 
REMARK    3  A    between atoms: C9_12  and  N3_13 
REMARK       I    between atoms: N3_13  and  C10_14 
REMARK    4  A    between atoms: C10_14  and  C11_16 
ROOT
HETATM    1  C3  UNL     1      22.717   3.514  50.980  1.00  0.00     0.222 C 
HETATM    2  C4  UNL     1      23.378   2.823  49.817  1.00  0.00     0.188 C 
HETATM    3  N1  UNL     1      24.375   3.444  49.516  1.00  0.00    -0.434 NA
HETATM    4  C5  UNL     1      25.377   4.203  49.330  1.00  0.00     0.445 C 
HETATM    5  N2  UNL     1      26.184   3.930  50.293  1.00  0.00    -0.262 NA
HETATM    6  C6  UNL     1      25.841   2.954  51.258  1.00  0.00     0.057 C 
HETATM    7  C7  UNL     1      24.580   2.693  51.638  1.00  0.00     0.092 C 
HETATM    8  C8  UNL     1      23.570   1.947  52.455  1.00  0.00    -0.039 C 
HETATM    9  C9  UNL     1      22.417   2.494  52.012  1.00  0.00     0.050 C 
HETATM   10  C14 UNL     1      23.797   0.901  53.521  1.00  0.00     0.064 C 
HETATM   11  C15 UNL     1      24.455  -0.338  52.988  1.00  0.00    -0.026 C 
HETATM   12  C16 UNL     1      25.675  -0.900  53.271  1.00  0.00    -0.025 C 
HETATM   13  C17 UNL     1      26.628  -0.313  54.231  1.00  0.00     0.077 C 
HETATM   14  C18 UNL     1      27.954   0.023  53.758  1.00  0.00     0.013 C 
HETATM   15 CL1  UNL     1      29.338  -1.051  53.856  1.00  0.00    -0.089 Cl
HETATM   16  C19 UNL     1      28.450   1.144  53.164  1.00  0.00     0.012 C 
HETATM   17  C20 UNL     1      27.357   2.153  53.004  1.00  0.00     0.149 C 
HETATM   18  N5  UNL     1      27.125   2.392  51.584  1.00  0.00    -0.381 N 
HETATM   19  H24 UNL     1      27.888   2.136  50.927  1.00  0.00     0.160 HD
ENDROOT
BRANCH   9  20
HETATM   20  N3  UNL     1      21.249   1.962  52.605  1.00  0.00    -0.326 N 
HETATM   21  C10 UNL     1      20.409   0.876  52.154  1.00  0.00     0.247 C 
HETATM   22  O2  UNL     1      20.732   0.291  51.097  1.00  0.00    -0.271 OA
HETATM   23  H10 UNL     1      20.820   2.292  53.484  1.00  0.00     0.168 HD
BRANCH  21  24
HETATM   24  C11 UNL     1      19.190   0.406  52.860  1.00  0.00     0.203 C 
HETATM   25  C12 UNL     1      19.160  -1.088  53.023  1.00  0.00     0.215 C 
HETATM   26  O3  UNL     1      17.786  -1.387  52.869  1.00  0.00    -0.301 OA
HETATM   27  C13 UNL     1      17.355  -0.614  51.798  1.00  0.00     0.361 C 
HETATM   28  O4  UNL     1      16.597  -0.766  50.781  1.00  0.00    -0.238 OA
HETATM   29  N4  UNL     1      18.007   0.636  52.031  1.00  0.00    -0.321 N 
HETATM   30  H14 UNL     1      17.707   1.574  51.675  1.00  0.00     0.165 HD
ENDBRANCH  21  24
ENDBRANCH   9  20
BRANCH   1  31
HETATM   31  O1  UNL     1      21.670   4.313  50.608  1.00  0.00    -0.374 OA
BRANCH  31  32
HETATM   32  C2  UNL     1      21.679   5.534  51.314  1.00  0.00     0.165 C 
HETATM   33  C1  UNL     1      21.984   6.689  50.373  1.00  0.00     0.033 C 
ENDBRANCH  31  32
ENDBRANCH   1  31
TORSDOF 4
ENDMDL
