MODEL 1
REMARK VINA RESULT:      -7.5      0.000      0.000
REMARK  3 active torsions:
REMARK  status: ('A' for Active; 'I' for Inactive)
REMARK    1  A    between atoms: O1_2  and  C2_3 
REMARK    2  A    between atoms: C12_13  and  C13_14 
REMARK    3  A    between atoms: C16_17  and  O2_18 
ROOT
HETATM    1  C2  UNL     1      19.956   0.632  52.040  1.00  0.00     0.068 C 
HETATM    2  C3  UNL     1      19.947   0.878  50.737  1.00  0.00     0.037 C 
HETATM    3  C4  UNL     1      20.017   1.284  49.362  1.00  0.00     0.017 C 
HETATM    4  C5  UNL     1      21.305   0.914  49.118  1.00  0.00     0.005 C 
HETATM    5  C6  UNL     1      22.189   1.461  49.899  1.00  0.00     0.068 C 
HETATM    6  C7  UNL     1      21.482   2.751  49.698  1.00  0.00     0.033 C 
HETATM    7  C8  UNL     1      20.818   3.071  50.787  1.00  0.00     0.010 C 
HETATM    8  C9  UNL     1      20.785   2.433  52.108  1.00  0.00    -0.050 C 
HETATM    9  C10 UNL     1      20.531   1.525  53.015  1.00  0.00     0.044 C 
HETATM   10  C11 UNL     1      22.083   2.972  52.719  1.00  0.00     0.099 C 
HETATM   11  C12 UNL     1      23.161   2.096  52.079  1.00  0.00     0.049 C 
HETATM   12  N1  UNL     1      23.305   1.743  50.794  1.00  0.00    -0.252 NA
ENDROOT
BRANCH  11  13
HETATM   13  C13 UNL     1      24.234   1.466  52.838  1.00  0.00    -0.011 A 
HETATM   14  C14 UNL     1      25.330   2.203  53.190  1.00  0.00     0.016 A 
HETATM   15  C15 UNL     1      26.381   1.669  53.918  1.00  0.00     0.037 A 
HETATM   16  C16 UNL     1      26.375   0.330  54.336  1.00  0.00     0.068 A 
HETATM   17  C18 UNL     1      25.264  -0.378  53.964  1.00  0.00     0.037 A 
HETATM   18  C19 UNL     1      24.253   0.178  53.251  1.00  0.00     0.016 A 
BRANCH  16  19
HETATM   19  O2  UNL     1      27.405  -0.230  55.062  1.00  0.00    -0.356 OA
HETATM   20  C17 UNL     1      28.775   0.013  54.731  1.00  0.00     0.210 C 
ENDBRANCH  16  19
ENDBRANCH  11  13
BRANCH   1  21
HETATM   21  O1  UNL     1      19.508  -0.375  52.878  1.00  0.00    -0.356 OA
HETATM   22  C1  UNL     1      20.497  -0.834  53.813  1.00  0.00     0.210 C 
ENDBRANCH   1  21
TORSDOF 3
ENDMDL
MODEL 2
REMARK VINA RESULT:      -7.5      3.943      5.062
REMARK  3 active torsions:
REMARK  status: ('A' for Active; 'I' for Inactive)
REMARK    1  A    between atoms: O1_2  and  C2_3 
REMARK    2  A    between atoms: C12_13  and  C13_14 
REMARK    3  A    between atoms: C16_17  and  O2_18 
ROOT
HETATM    1  C2  UNL     1      24.179   1.027  52.494  1.00  0.00     0.068 C 
HETATM    2  C3  UNL     1      22.989   0.738  51.984  1.00  0.00     0.037 C 
HETATM    3  C4  UNL     1      21.665   0.585  51.451  1.00  0.00     0.017 C 
HETATM    4  C5  UNL     1      21.912   1.043  50.192  1.00  0.00     0.005 C 
HETATM    5  C6  UNL     1      22.393   2.250  50.133  1.00  0.00     0.068 C 
HETATM    6  C7  UNL     1      21.374   2.642  51.140  1.00  0.00     0.033 C 
HETATM    7  C8  UNL     1      21.950   2.833  52.306  1.00  0.00     0.010 C 
HETATM    8  C9  UNL     1      23.367   2.828  52.685  1.00  0.00    -0.050 C 
HETATM    9  C10 UNL     1      24.563   2.352  52.915  1.00  0.00     0.044 C 
HETATM   10  C11 UNL     1      23.791   4.228  52.226  1.00  0.00     0.099 C 
HETATM   11  C12 UNL     1      23.966   4.063  50.716  1.00  0.00     0.049 C 
HETATM   12  N1  UNL     1      23.157   3.456  49.836  1.00  0.00    -0.252 NA
ENDROOT
BRANCH  11  13
HETATM   13  C13 UNL     1      25.128   4.556  49.988  1.00  0.00    -0.011 A 
HETATM   14  C14 UNL     1      25.182   5.871  49.619  1.00  0.00     0.016 A 
HETATM   15  C15 UNL     1      26.259   6.407  48.933  1.00  0.00     0.037 A 
HETATM   16  C16 UNL     1      27.364   5.619  48.576  1.00  0.00     0.068 A 
HETATM   17  C18 UNL     1      27.275   4.307  48.959  1.00  0.00     0.037 A 
HETATM   18  C19 UNL     1      26.204   3.817  49.631  1.00  0.00     0.016 A 
BRANCH  16  19
HETATM   19  O2  UNL     1      28.451   6.123  47.895  1.00  0.00    -0.356 OA
HETATM   20  C17 UNL     1      29.780   5.661  48.154  1.00  0.00     0.210 C 
ENDBRANCH  16  19
ENDBRANCH  11  13
BRANCH   1  21
HETATM   21  O1  UNL     1      25.340   0.337  52.795  1.00  0.00    -0.356 OA
HETATM   22  C1  UNL     1      26.456   0.689  51.962  1.00  0.00     0.210 C 
ENDBRANCH   1  21
TORSDOF 3
ENDMDL
MODEL 3
REMARK VINA RESULT:      -7.4      2.135      6.606
REMARK  3 active torsions:
REMARK  status: ('A' for Active; 'I' for Inactive)
REMARK    1  A    between atoms: O1_2  and  C2_3 
REMARK    2  A    between atoms: C12_13  and  C13_14 
REMARK    3  A    between atoms: C16_17  and  O2_18 
ROOT
HETATM    1  C2  UNL     1      26.602   1.933  51.336  1.00  0.00     0.068 C 
HETATM    2  C3  UNL     1      27.146   0.963  52.059  1.00  0.00     0.037 C 
HETATM    3  C4  UNL     1      27.631  -0.041  52.963  1.00  0.00     0.017 C 
HETATM    4  C5  UNL     1      26.628  -0.948  52.798  1.00  0.00     0.005 C 
HETATM    5  C6  UNL     1      25.436  -0.501  53.062  1.00  0.00     0.068 C 
HETATM    6  C7  UNL     1      26.005   0.125  54.282  1.00  0.00     0.033 C 
HETATM    7  C8  UNL     1      26.090   1.426  54.119  1.00  0.00     0.010 C 
HETATM    8  C9  UNL     1      25.622   2.285  53.025  1.00  0.00    -0.050 C 
HETATM    9  C10 UNL     1      25.562   2.803  51.825  1.00  0.00     0.044 C 
HETATM   10  C11 UNL     1      24.134   2.407  53.373  1.00  0.00     0.099 C 
HETATM   11  C12 UNL     1      23.549   1.083  52.879  1.00  0.00     0.049 C 
HETATM   12  N1  UNL     1      24.018  -0.161  53.053  1.00  0.00    -0.252 NA
ENDROOT
BRANCH  11  13
HETATM   13  C13 UNL     1      22.335   0.995  52.078  1.00  0.00    -0.011 A 
HETATM   14  C14 UNL     1      21.150   0.691  52.686  1.00  0.00     0.016 A 
HETATM   15  C15 UNL     1      19.958   0.600  51.986  1.00  0.00     0.037 A 
HETATM   16  C16 UNL     1      19.905   0.816  50.601  1.00  0.00     0.068 A 
HETATM   17  C18 UNL     1      21.110   1.116  50.025  1.00  0.00     0.037 A 
HETATM   18  C19 UNL     1      22.259   1.197  50.742  1.00  0.00     0.016 A 
BRANCH  16  19
HETATM   19  O2  UNL     1      18.734   0.733  49.877  1.00  0.00    -0.356 OA
HETATM   20  C17 UNL     1      17.573   0.081  50.399  1.00  0.00     0.210 C 
ENDBRANCH  16  19
ENDBRANCH  11  13
BRANCH   1  21
HETATM   21  O1  UNL     1      26.757   2.444  50.059  1.00  0.00    -0.356 OA
HETATM   22  C1  UNL     1      26.311   3.802  49.921  1.00  0.00     0.210 C 
ENDBRANCH   1  21
TORSDOF 3
ENDMDL
MODEL 4
REMARK VINA RESULT:      -7.4      2.790      4.323
REMARK  3 active torsions:
REMARK  status: ('A' for Active; 'I' for Inactive)
REMARK    1  A    between atoms: O1_2  and  C2_3 
REMARK    2  A    between atoms: C12_13  and  C13_14 
REMARK    3  A    between atoms: C16_17  and  O2_18 
ROOT
HETATM    1  C2  UNL     1      24.381   4.632  49.626  1.00  0.00     0.068 C 
HETATM    2  C3  UNL     1      23.532   5.326  50.373  1.00  0.00     0.037 C 
HETATM    3  C4  UNL     1      22.524   5.939  51.190  1.00  0.00     0.017 C 
HETATM    4  C5  UNL     1      22.933   5.452  52.395  1.00  0.00     0.005 C 
HETATM    5  C6  UNL     1      22.990   4.155  52.471  1.00  0.00     0.068 C 
HETATM    6  C7  UNL     1      21.670   4.117  51.792  1.00  0.00     0.033 C 
HETATM    7  C8  UNL     1      21.819   3.711  50.550  1.00  0.00     0.010 C 
HETATM    8  C9  UNL     1      23.005   3.218  49.842  1.00  0.00    -0.050 C 
HETATM    9  C10 UNL     1      24.184   3.247  49.277  1.00  0.00     0.044 C 
HETATM   10  C11 UNL     1      23.054   1.769  50.339  1.00  0.00     0.099 C 
HETATM   11  C12 UNL     1      23.668   1.898  51.733  1.00  0.00     0.049 C 
HETATM   12  N1  UNL     1      23.368   2.767  52.708  1.00  0.00    -0.252 NA
ENDROOT
BRANCH  11  13
HETATM   13  C13 UNL     1      24.754   1.051  52.209  1.00  0.00    -0.011 A 
HETATM   14  C14 UNL     1      24.498   0.097  53.153  1.00  0.00     0.016 A 
HETATM   15  C15 UNL     1      25.481  -0.747  53.643  1.00  0.00     0.037 A 
HETATM   16  C16 UNL     1      26.807  -0.665  53.191  1.00  0.00     0.068 A 
HETATM   17  C18 UNL     1      27.028   0.303  52.248  1.00  0.00     0.037 A 
HETATM   18  C19 UNL     1      26.040   1.112  51.790  1.00  0.00     0.016 A 
BRANCH  16  19
HETATM   19  O2  UNL     1      27.807  -1.491  53.658  1.00  0.00    -0.356 OA
HETATM   20  C17 UNL     1      29.189  -1.187  53.451  1.00  0.00     0.210 C 
ENDBRANCH  16  19
ENDBRANCH  11  13
BRANCH   1  21
HETATM   21  O1  UNL     1      25.579   4.872  48.977  1.00  0.00    -0.356 OA
HETATM   22  C1  UNL     1      26.648   4.009  49.396  1.00  0.00     0.210 C 
ENDBRANCH   1  21
TORSDOF 3
ENDMDL
MODEL 5
REMARK VINA RESULT:      -7.4      1.888      2.408
REMARK  3 active torsions:
REMARK  status: ('A' for Active; 'I' for Inactive)
REMARK    1  A    between atoms: O1_2  and  C2_3 
REMARK    2  A    between atoms: C12_13  and  C13_14 
REMARK    3  A    between atoms: C16_17  and  O2_18 
ROOT
HETATM    1  C2  UNL     1      22.041   1.402  51.433  1.00  0.00     0.068 C 
HETATM    2  C3  UNL     1      22.061   2.200  50.373  1.00  0.00     0.037 C 
HETATM    3  C4  UNL     1      22.167   3.170  49.320  1.00  0.00     0.017 C 
HETATM    4  C5  UNL     1      23.447   2.901  48.940  1.00  0.00     0.005 C 
HETATM    5  C6  UNL     1      24.334   3.015  49.884  1.00  0.00     0.068 C 
HETATM    6  C7  UNL     1      23.670   4.285  50.273  1.00  0.00     0.033 C 
HETATM    7  C8  UNL     1      22.999   4.112  51.391  1.00  0.00     0.010 C 
HETATM    8  C9  UNL     1      22.924   2.958  52.292  1.00  0.00    -0.050 C 
HETATM    9  C10 UNL     1      22.627   1.752  52.703  1.00  0.00     0.044 C 
HETATM   10  C11 UNL     1      24.227   3.125  53.081  1.00  0.00     0.099 C 
HETATM   11  C12 UNL     1      25.289   2.586  52.121  1.00  0.00     0.049 C 
HETATM   12  N1  UNL     1      25.443   2.833  50.812  1.00  0.00    -0.252 NA
ENDROOT
BRANCH  11  13
HETATM   13  C13 UNL     1      26.328   1.648  52.524  1.00  0.00    -0.011 A 
HETATM   14  C14 UNL     1      27.514   2.126  53.008  1.00  0.00     0.016 A 
HETATM   15  C15 UNL     1      28.541   1.291  53.417  1.00  0.00     0.037 A 
HETATM   16  C16 UNL     1      28.417  -0.105  53.354  1.00  0.00     0.068 A 
HETATM   17  C18 UNL     1      27.218  -0.548  52.863  1.00  0.00     0.037 A 
HETATM   18  C19 UNL     1      26.234   0.299  52.472  1.00  0.00     0.016 A 
BRANCH  16  19
HETATM   19  O2  UNL     1      29.420  -0.962  53.754  1.00  0.00    -0.356 OA
HETATM   20  C17 UNL     1      29.459  -2.325  53.324  1.00  0.00     0.210 C 
ENDBRANCH  16  19
ENDBRANCH  11  13
BRANCH   1  21
HETATM   21  O1  UNL     1      21.549   0.145  51.737  1.00  0.00    -0.356 OA
HETATM   22  C1  UNL     1      22.296  -0.539  52.755  1.00  0.00     0.210 C 
ENDBRANCH   1  21
TORSDOF 3
ENDMDL
MODEL 6
REMARK VINA RESULT:      -7.1      4.933      6.286
REMARK  3 active torsions:
REMARK  status: ('A' for Active; 'I' for Inactive)
REMARK    1  A    between atoms: O1_2  and  C2_3 
REMARK    2  A    between atoms: C12_13  and  C13_14 
REMARK    3  A    between atoms: C16_17  and  O2_18 
ROOT
HETATM    1  C2  UNL     1      22.450   4.568  51.474  1.00  0.00     0.068 C 
HETATM    2  C3  UNL     1      22.755   3.546  52.262  1.00  0.00     0.037 C 
HETATM    3  C4  UNL     1      23.136   2.361  52.978  1.00  0.00     0.017 C 
HETATM    4  C5  UNL     1      24.476   2.601  53.044  1.00  0.00     0.005 C 
HETATM    5  C6  UNL     1      25.061   2.761  51.894  1.00  0.00     0.068 C 
HETATM    6  C7  UNL     1      24.295   1.586  51.408  1.00  0.00     0.033 C 
HETATM    7  C8  UNL     1      23.341   1.981  50.595  1.00  0.00     0.010 C 
HETATM    8  C9  UNL     1      23.033   3.310  50.056  1.00  0.00    -0.050 C 
HETATM    9  C10 UNL     1      22.652   4.561  50.046  1.00  0.00     0.044 C 
HETATM   10  C11 UNL     1      24.061   3.404  48.922  1.00  0.00     0.099 C 
HETATM   11  C12 UNL     1      25.357   3.757  49.653  1.00  0.00     0.049 C 
HETATM   12  N1  UNL     1      25.868   3.217  50.769  1.00  0.00    -0.252 NA
ENDROOT
BRANCH  11  13
HETATM   13  C13 UNL     1      26.256   4.818  49.218  1.00  0.00    -0.011 A 
HETATM   14  C14 UNL     1      25.843   6.119  49.290  1.00  0.00     0.016 A 
HETATM   15  C15 UNL     1      26.650   7.177  48.901  1.00  0.00     0.037 A 
HETATM   16  C16 UNL     1      27.946   6.965  48.408  1.00  0.00     0.068 A 
HETATM   17  C18 UNL     1      28.325   5.650  48.348  1.00  0.00     0.037 A 
HETATM   18  C19 UNL     1      27.508   4.640  48.738  1.00  0.00     0.016 A 
BRANCH  16  19
HETATM   19  O2  UNL     1      28.772   7.996  48.014  1.00  0.00    -0.356 OA
HETATM   20  C17 UNL     1      29.503   8.776  48.964  1.00  0.00     0.210 C 
ENDBRANCH  16  19
ENDBRANCH  11  13
BRANCH   1  21
HETATM   21  O1  UNL     1      21.911   5.834  51.630  1.00  0.00    -0.356 OA
HETATM   22  C1  UNL     1      22.128   6.699  50.505  1.00  0.00     0.210 C 
ENDBRANCH   1  21
TORSDOF 3
ENDMDL
MODEL 7
REMARK VINA RESULT:      -7.1      9.991     12.601
REMARK  3 active torsions:
REMARK  status: ('A' for Active; 'I' for Inactive)
REMARK    1  A    between atoms: O1_2  and  C2_3 
REMARK    2  A    between atoms: C12_13  and  C13_14 
REMARK    3  A    between atoms: C16_17  and  O2_18 
ROOT
HETATM    1  C2  UNL     1      33.376   5.325  44.897  1.00  0.00     0.068 C 
HETATM    2  C3  UNL     1      33.996   4.289  45.449  1.00  0.00     0.037 C 
HETATM    3  C4  UNL     1      34.683   3.263  46.181  1.00  0.00     0.017 C 
HETATM    4  C5  UNL     1      33.630   2.822  46.924  1.00  0.00     0.005 C 
HETATM    5  C6  UNL     1      33.057   3.731  47.657  1.00  0.00     0.068 C 
HETATM    6  C7  UNL     1      34.416   4.186  48.049  1.00  0.00     0.033 C 
HETATM    7  C8  UNL     1      34.693   5.325  47.453  1.00  0.00     0.010 C 
HETATM    8  C9  UNL     1      33.859   6.193  46.615  1.00  0.00    -0.050 C 
HETATM    9  C10 UNL     1      33.165   6.579  45.576  1.00  0.00     0.044 C 
HETATM   10  C11 UNL     1      33.048   6.931  47.686  1.00  0.00     0.099 C 
HETATM   11  C12 UNL     1      31.978   5.912  48.079  1.00  0.00     0.049 C 
HETATM   12  N1  UNL     1      32.119   4.606  48.348  1.00  0.00    -0.252 NA
ENDROOT
BRANCH  11  13
HETATM   13  C13 UNL     1      30.564   6.243  48.196  1.00  0.00    -0.011 A 
HETATM   14  C14 UNL     1      29.636   5.239  48.184  1.00  0.00     0.016 A 
HETATM   15  C15 UNL     1      28.278   5.482  48.300  1.00  0.00     0.037 A 
HETATM   16  C16 UNL     1      27.777   6.785  48.436  1.00  0.00     0.068 A 
HETATM   17  C18 UNL     1      28.733   7.765  48.442  1.00  0.00     0.037 A 
HETATM   18  C19 UNL     1      30.057   7.490  48.327  1.00  0.00     0.016 A 
BRANCH  16  19
HETATM   19  O2  UNL     1      26.431   7.059  48.554  1.00  0.00    -0.356 OA
HETATM   20  C17 UNL     1      25.839   7.387  49.815  1.00  0.00     0.210 C 
ENDBRANCH  16  19
ENDBRANCH  11  13
BRANCH   1  21
HETATM   21  O1  UNL     1      32.784   5.611  43.680  1.00  0.00    -0.356 OA
HETATM   22  C1  UNL     1      33.283   4.819  42.591  1.00  0.00     0.210 C 
ENDBRANCH   1  21
TORSDOF 3
ENDMDL
MODEL 8
REMARK VINA RESULT:      -7.0      2.324      3.561
REMARK  3 active torsions:
REMARK  status: ('A' for Active; 'I' for Inactive)
REMARK    1  A    between atoms: O1_2  and  C2_3 
REMARK    2  A    between atoms: C12_13  and  C13_14 
REMARK    3  A    between atoms: C16_17  and  O2_18 
ROOT
HETATM    1  C2  UNL     1      22.895   4.974  51.376  1.00  0.00     0.068 C 
HETATM    2  C3  UNL     1      21.601   4.689  51.443  1.00  0.00     0.037 C 
HETATM    3  C4  UNL     1      20.234   4.252  51.416  1.00  0.00     0.017 C 
HETATM    4  C5  UNL     1      20.336   3.248  52.332  1.00  0.00     0.005 C 
HETATM    5  C6  UNL     1      21.212   2.331  52.044  1.00  0.00     0.068 C 
HETATM    6  C7  UNL     1      20.685   2.346  50.656  1.00  0.00     0.033 C 
HETATM    7  C8  UNL     1      21.545   2.940  49.858  1.00  0.00     0.010 C 
HETATM    8  C9  UNL     1      22.899   3.441  50.116  1.00  0.00    -0.050 C 
HETATM    9  C10 UNL     1      23.842   4.200  50.612  1.00  0.00     0.044 C 
HETATM   10  C11 UNL     1      23.705   2.139  50.046  1.00  0.00     0.099 C 
HETATM   11  C12 UNL     1      23.447   1.493  51.407  1.00  0.00     0.049 C 
HETATM   12  N1  UNL     1      22.286   1.345  52.062  1.00  0.00    -0.252 NA
ENDROOT
BRANCH  11  13
HETATM   13  C13 UNL     1      24.504   0.937  52.241  1.00  0.00    -0.011 A 
HETATM   14  C14 UNL     1      25.810   1.204  51.938  1.00  0.00     0.016 A 
HETATM   15  C15 UNL     1      26.863   0.715  52.693  1.00  0.00     0.037 A 
HETATM   16  C16 UNL     1      26.643  -0.090  53.821  1.00  0.00     0.068 A 
HETATM   17  C18 UNL     1      25.324  -0.338  54.094  1.00  0.00     0.037 A 
HETATM   18  C19 UNL     1      24.318   0.158  53.332  1.00  0.00     0.016 A 
BRANCH  16  19
HETATM   19  O2  UNL     1      27.670  -0.590  54.592  1.00  0.00    -0.356 OA
HETATM   20  C17 UNL     1      28.993  -0.052  54.522  1.00  0.00     0.210 C 
ENDBRANCH  16  19
ENDBRANCH  11  13
BRANCH   1  21
HETATM   21  O1  UNL     1      23.741   5.939  51.894  1.00  0.00    -0.356 OA
HETATM   22  C1  UNL     1      24.479   6.660  50.895  1.00  0.00     0.210 C 
ENDBRANCH   1  21
TORSDOF 3
ENDMDL
MODEL 9
REMARK VINA RESULT:      -7.0      1.918      3.304
REMARK  3 active torsions:
REMARK  status: ('A' for Active; 'I' for Inactive)
REMARK    1  A    between atoms: O1_2  and  C2_3 
REMARK    2  A    between atoms: C12_13  and  C13_14 
REMARK    3  A    between atoms: C16_17  and  O2_18 
ROOT
HETATM    1  C2  UNL     1      21.682   2.582  49.308  1.00  0.00     0.068 C 
HETATM    2  C3  UNL     1      20.662   3.259  49.820  1.00  0.00     0.037 C 
HETATM    3  C4  UNL     1      19.511   3.850  50.441  1.00  0.00     0.017 C 
HETATM    4  C5  UNL     1      20.021   3.985  51.698  1.00  0.00     0.005 C 
HETATM    5  C6  UNL     1      20.434   2.879  52.243  1.00  0.00     0.068 C 
HETATM    6  C7  UNL     1      19.187   2.240  51.751  1.00  0.00     0.033 C 
HETATM    7  C8  UNL     1      19.462   1.447  50.739  1.00  0.00     0.010 C 
HETATM    8  C9  UNL     1      20.749   1.050  50.158  1.00  0.00    -0.050 C 
HETATM    9  C10 UNL     1      21.883   1.169  49.516  1.00  0.00     0.044 C 
HETATM   10  C11 UNL     1      21.190  -0.032  51.149  1.00  0.00     0.099 C 
HETATM   11  C12 UNL     1      21.723   0.774  52.334  1.00  0.00     0.049 C 
HETATM   12  N1  UNL     1      21.178   1.838  52.941  1.00  0.00    -0.252 NA
ENDROOT
BRANCH  11  13
HETATM   13  C13 UNL     1      22.994   0.490  52.987  1.00  0.00    -0.011 A 
HETATM   14  C14 UNL     1      23.077  -0.551  53.869  1.00  0.00     0.016 A 
HETATM   15  C15 UNL     1      24.255  -0.882  54.519  1.00  0.00     0.037 A 
HETATM   16  C16 UNL     1      25.437  -0.157  54.304  1.00  0.00     0.068 A 
HETATM   17  C18 UNL     1      25.316   0.878  53.416  1.00  0.00     0.037 A 
HETATM   18  C19 UNL     1      24.146   1.173  52.798  1.00  0.00     0.016 A 
BRANCH  16  19
HETATM   19  O2  UNL     1      26.625  -0.463  54.934  1.00  0.00    -0.356 OA
HETATM   20  C17 UNL     1      27.830   0.254  54.651  1.00  0.00     0.210 C 
ENDBRANCH  16  19
ENDBRANCH  11  13
BRANCH   1  21
HETATM   21  O1  UNL     1      22.777   2.861  48.509  1.00  0.00    -0.356 OA
HETATM   22  C1  UNL     1      23.921   3.333  49.238  1.00  0.00     0.210 C 
ENDBRANCH   1  21
TORSDOF 3
ENDMDL
