MODEL 1
REMARK VINA RESULT:      -9.0      0.000      0.000
REMARK  6 active torsions:
REMARK  status: ('A' for Active; 'I' for Inactive)
REMARK    1  A    between atoms: C5_5  and  N1_6 
REMARK    2  A    between atoms: N1_6  and  C6_7 
REMARK    3  A    between atoms: C6_7  and  C7_8 
REMARK    4  A    between atoms: C11_14  and  C12_15 
REMARK       I    between atoms: C12_15  and  N3_17 
REMARK    5  A    between atoms: N3_17  and  C13_18 
REMARK    6  A    between atoms: C16_21  and  N4_22 
ROOT
HETATM    1  C7  UNL     1      22.275   0.035  52.944  1.00  0.00    -0.010 C 
HETATM    2  C8  UNL     1      21.264   0.420  53.705  1.00  0.00     0.092 C 
HETATM    3  N2  UNL     1      20.300   1.267  53.095  1.00  0.00    -0.373 N 
HETATM    4  C9  UNL     1      20.075   1.161  51.683  1.00  0.00     0.217 C 
HETATM    5  C10 UNL     1      18.873   0.255  51.400  1.00  0.00     0.063 C 
HETATM    6  O1  UNL     1      21.108   0.681  50.940  1.00  0.00    -0.348 OA
HETATM    7  C11 UNL     1      22.317   0.511  51.551  1.00  0.00     0.248 C 
HETATM    8  H9  UNL     1      19.760   1.959  53.669  1.00  0.00     0.161 HD
ENDROOT
BRANCH   7   9
HETATM    9  C12 UNL     1      23.196   1.728  51.421  1.00  0.00     0.255 C 
HETATM   10  O2  UNL     1      23.719   2.299  52.428  1.00  0.00    -0.270 OA
HETATM   11  N3  UNL     1      23.471   2.282  50.159  1.00  0.00    -0.325 N 
HETATM   12  H15 UNL     1      23.087   1.888  49.268  1.00  0.00     0.169 HD
BRANCH  11  13
HETATM   13  C13 UNL     1      24.274   3.417  49.884  1.00  0.00     0.035 A 
HETATM   14  C14 UNL     1      25.631   3.232  49.709  1.00  0.00     0.032 A 
HETATM   15  C15 UNL     1      26.421   4.331  49.442  1.00  0.00     0.031 A 
HETATM   16  C16 UNL     1      25.948   5.620  49.336  1.00  0.00     0.030 A 
HETATM   17  C22 UNL     1      24.596   5.749  49.517  1.00  0.00     0.031 A 
HETATM   18  C23 UNL     1      23.751   4.696  49.786  1.00  0.00     0.032 A 
BRANCH  16  19
HETATM   19  N4  UNL     1      26.764   6.743  49.058  1.00  0.00    -0.378 N 
HETATM   20  C17 UNL     1      27.911   6.780  48.201  1.00  0.00     0.153 C 
HETATM   21  C18 UNL     1      27.777   7.900  47.197  1.00  0.00     0.291 C 
HETATM   22  N5  UNL     1      27.457   9.160  47.806  1.00  0.00     0.087 N 
HETATM   23  C19 UNL     1      26.334   9.821  47.184  1.00  0.00     0.310 C 
HETATM   24  C20 UNL     1      27.353   9.103  49.238  1.00  0.00     0.291 C 
HETATM   25  C21 UNL     1      26.422   8.012  49.711  1.00  0.00     0.153 C 
ENDBRANCH  16  19
ENDBRANCH  11  13
ENDBRANCH   7   9
BRANCH   1  26
HETATM   26  C6  UNL     1      23.360  -0.847  53.434  1.00  0.00     0.158 C 
BRANCH  26  27
HETATM   27  N1  UNL     1      24.277  -0.161  54.328  1.00  0.00    -0.385 N 
HETATM   28  H5  UNL     1      23.993   0.463  55.112  1.00  0.00     0.160 HD
BRANCH  27  29
HETATM   29  C5  UNL     1      25.680  -0.356  54.116  1.00  0.00     0.043 A 
HETATM   30  C4  UNL     1      26.182  -1.038  52.927  1.00  0.00     0.033 A 
HETATM   31  C3  UNL     1      27.471  -1.228  52.707  1.00  0.00     0.031 A 
HETATM   32  C2  UNL     1      28.468  -0.752  53.669  1.00  0.00     0.022 A 
HETATM   33  C1  UNL     1      29.793  -0.896  53.537  1.00  0.00     0.043 C 
HETATM   34  N6  UNL     1      27.981  -0.079  54.842  1.00  0.00    -0.364 N 
HETATM   35  C24 UNL     1      26.577   0.077  54.988  1.00  0.00     0.117 A 
HETATM   36  H32 UNL     1      28.664   0.280  55.564  1.00  0.00     0.165 HD
ENDBRANCH  27  29
ENDBRANCH  26  27
ENDBRANCH   1  26
TORSDOF 6
ENDMDL
MODEL 2
REMARK VINA RESULT:      -8.9      2.806      4.087
REMARK  6 active torsions:
REMARK  status: ('A' for Active; 'I' for Inactive)
REMARK    1  A    between atoms: C5_5  and  N1_6 
REMARK    2  A    between atoms: N1_6  and  C6_7 
REMARK    3  A    between atoms: C6_7  and  C7_8 
REMARK    4  A    between atoms: C11_14  and  C12_15 
REMARK       I    between atoms: C12_15  and  N3_17 
REMARK    5  A    between atoms: N3_17  and  C13_18 
REMARK    6  A    between atoms: C16_21  and  N4_22 
ROOT
HETATM    1  C7  UNL     1      23.956   3.533  52.335  1.00  0.00    -0.010 C 
HETATM    2  C8  UNL     1      23.425   4.587  52.932  1.00  0.00     0.092 C 
HETATM    3  N2  UNL     1      22.969   5.632  52.083  1.00  0.00    -0.373 N 
HETATM    4  C9  UNL     1      22.513   5.307  50.763  1.00  0.00     0.217 C 
HETATM    5  C10 UNL     1      20.988   5.167  50.745  1.00  0.00     0.063 C 
HETATM    6  O1  UNL     1      23.016   4.170  50.212  1.00  0.00    -0.348 OA
HETATM    7  C11 UNL     1      24.031   3.532  50.864  1.00  0.00     0.248 C 
HETATM    8  H9  UNL     1      22.966   6.625  52.418  1.00  0.00     0.161 HD
ENDROOT
BRANCH   7   9
HETATM    9  C12 UNL     1      25.387   3.991  50.392  1.00  0.00     0.255 C 
HETATM   10  O2  UNL     1      26.462   3.425  50.761  1.00  0.00    -0.270 OA
HETATM   11  N3  UNL     1      25.508   5.080  49.511  1.00  0.00    -0.325 N 
HETATM   12  H15 UNL     1      24.683   5.614  49.149  1.00  0.00     0.169 HD
BRANCH  11  13
HETATM   13  C13 UNL     1      26.708   5.620  48.986  1.00  0.00     0.035 A 
HETATM   14  C14 UNL     1      26.813   6.993  48.873  1.00  0.00     0.032 A 
HETATM   15  C15 UNL     1      27.977   7.529  48.362  1.00  0.00     0.031 A 
HETATM   16  C16 UNL     1      29.059   6.784  47.948  1.00  0.00     0.030 A 
HETATM   17  C22 UNL     1      28.904   5.429  48.081  1.00  0.00     0.031 A 
HETATM   18  C23 UNL     1      27.770   4.829  48.583  1.00  0.00     0.032 A 
BRANCH  16  19
HETATM   19  N4  UNL     1      30.252   7.340  47.428  1.00  0.00    -0.378 N 
HETATM   20  C17 UNL     1      30.514   8.725  47.174  1.00  0.00     0.153 C 
HETATM   21  C18 UNL     1      31.805   9.143  47.838  1.00  0.00     0.291 C 
HETATM   22  N5  UNL     1      32.901   8.270  47.526  1.00  0.00     0.087 N 
HETATM   23  C19 UNL     1      33.619   7.822  48.695  1.00  0.00     0.310 C 
HETATM   24  C20 UNL     1      32.554   7.198  46.633  1.00  0.00     0.291 C 
HETATM   25  C21 UNL     1      31.347   6.419  47.101  1.00  0.00     0.153 C 
ENDBRANCH  16  19
ENDBRANCH  11  13
ENDBRANCH   7   9
BRANCH   1  26
HETATM   26  C6  UNL     1      24.476   2.363  53.081  1.00  0.00     0.158 C 
BRANCH  26  27
HETATM   27  N1  UNL     1      25.680   2.671  53.833  1.00  0.00    -0.385 N 
HETATM   28  H5  UNL     1      25.833   3.539  54.388  1.00  0.00     0.160 HD
BRANCH  27  29
HETATM   29  C5  UNL     1      26.740   1.708  53.810  1.00  0.00     0.043 A 
HETATM   30  C4  UNL     1      28.120   2.103  53.542  1.00  0.00     0.033 A 
HETATM   31  C3  UNL     1      29.116   1.235  53.517  1.00  0.00     0.031 A 
HETATM   32  C2  UNL     1      28.869  -0.188  53.764  1.00  0.00     0.022 A 
HETATM   33  C1  UNL     1      29.809  -1.143  53.759  1.00  0.00     0.043 C 
HETATM   34  N6  UNL     1      27.513  -0.584  54.029  1.00  0.00    -0.364 N 
HETATM   35  C24 UNL     1      26.513   0.423  54.034  1.00  0.00     0.117 A 
HETATM   36  H32 UNL     1      27.288  -1.601  54.210  1.00  0.00     0.165 HD
ENDBRANCH  27  29
ENDBRANCH  26  27
ENDBRANCH   1  26
TORSDOF 6
ENDMDL
MODEL 3
REMARK VINA RESULT:      -8.8      0.985      1.680
REMARK  6 active torsions:
REMARK  status: ('A' for Active; 'I' for Inactive)
REMARK    1  A    between atoms: C5_5  and  N1_6 
REMARK    2  A    between atoms: N1_6  and  C6_7 
REMARK    3  A    between atoms: C6_7  and  C7_8 
REMARK    4  A    between atoms: C11_14  and  C12_15 
REMARK       I    between atoms: C12_15  and  N3_17 
REMARK    5  A    between atoms: N3_17  and  C13_18 
REMARK    6  A    between atoms: C16_21  and  N4_22 
ROOT
HETATM    1  C7  UNL     1      22.363   0.715  52.485  1.00  0.00    -0.010 C 
HETATM    2  C8  UNL     1      21.314   1.143  53.168  1.00  0.00     0.092 C 
HETATM    3  N2  UNL     1      20.390   1.960  52.462  1.00  0.00    -0.373 N 
HETATM    4  C9  UNL     1      20.242   1.780  51.047  1.00  0.00     0.217 C 
HETATM    5  C10 UNL     1      19.053   0.863  50.746  1.00  0.00     0.063 C 
HETATM    6  O1  UNL     1      21.312   1.257  50.389  1.00  0.00    -0.348 OA
HETATM    7  C11 UNL     1      22.484   1.116  51.074  1.00  0.00     0.248 C 
HETATM    8  H9  UNL     1      19.824   2.682  52.968  1.00  0.00     0.161 HD
ENDROOT
BRANCH   7   9
HETATM    9  C12 UNL     1      23.376   2.322  50.929  1.00  0.00     0.255 C 
HETATM   10  O2  UNL     1      23.812   2.969  51.931  1.00  0.00    -0.270 OA
HETATM   11  N3  UNL     1      23.763   2.778  49.656  1.00  0.00    -0.325 N 
HETATM   12  H15 UNL     1      23.458   2.316  48.768  1.00  0.00     0.169 HD
BRANCH  11  13
HETATM   13  C13 UNL     1      24.592   3.891  49.367  1.00  0.00     0.035 A 
HETATM   14  C14 UNL     1      23.989   5.082  49.015  1.00  0.00     0.032 A 
HETATM   15  C15 UNL     1      24.787   6.170  48.731  1.00  0.00     0.031 A 
HETATM   16  C16 UNL     1      26.164   6.156  48.771  1.00  0.00     0.030 A 
HETATM   17  C22 UNL     1      26.712   4.951  49.126  1.00  0.00     0.031 A 
HETATM   18  C23 UNL     1      25.974   3.827  49.422  1.00  0.00     0.032 A 
BRANCH  16  19
HETATM   19  N4  UNL     1      26.977   7.278  48.481  1.00  0.00    -0.378 N 
HETATM   20  C17 UNL     1      26.884   8.581  49.069  1.00  0.00     0.153 C 
HETATM   21  C18 UNL     1      28.231   9.012  49.597  1.00  0.00     0.291 C 
HETATM   22  N5  UNL     1      29.280   8.879  48.627  1.00  0.00     0.087 N 
HETATM   23  C19 UNL     1      30.434   8.173  49.133  1.00  0.00     0.310 C 
HETATM   24  C20 UNL     1      28.834   8.386  47.352  1.00  0.00     0.291 C 
HETATM   25  C21 UNL     1      28.028   7.114  47.470  1.00  0.00     0.153 C 
ENDBRANCH  16  19
ENDBRANCH  11  13
ENDBRANCH   7   9
BRANCH   1  26
HETATM   26  C6  UNL     1      23.414  -0.144  53.081  1.00  0.00     0.158 C 
BRANCH  26  27
HETATM   27  N1  UNL     1      24.399   0.616  53.829  1.00  0.00    -0.385 N 
HETATM   28  H5  UNL     1      24.195   1.470  54.391  1.00  0.00     0.160 HD
BRANCH  27  29
HETATM   29  C5  UNL     1      25.756   0.161  53.792  1.00  0.00     0.043 A 
HETATM   30  C4  UNL     1      26.296  -0.528  52.624  1.00  0.00     0.033 A 
HETATM   31  C3  UNL     1      27.544  -0.956  52.564  1.00  0.00     0.031 A 
HETATM   32  C2  UNL     1      28.457  -0.751  53.693  1.00  0.00     0.022 A 
HETATM   33  C1  UNL     1      29.735  -1.147  53.729  1.00  0.00     0.043 C 
HETATM   34  N6  UNL     1      27.932  -0.073  54.847  1.00  0.00    -0.364 N 
HETATM   35  C24 UNL     1      26.577   0.349  54.814  1.00  0.00     0.117 A 
HETATM   36  H32 UNL     1      28.553   0.096  55.685  1.00  0.00     0.165 HD
ENDBRANCH  27  29
ENDBRANCH  26  27
ENDBRANCH   1  26
TORSDOF 6
ENDMDL
MODEL 4
REMARK VINA RESULT:      -8.6      2.783      3.874
REMARK  6 active torsions:
REMARK  status: ('A' for Active; 'I' for Inactive)
REMARK    1  A    between atoms: C5_5  and  N1_6 
REMARK    2  A    between atoms: N1_6  and  C6_7 
REMARK    3  A    between atoms: C6_7  and  C7_8 
REMARK    4  A    between atoms: C11_14  and  C12_15 
REMARK       I    between atoms: C12_15  and  N3_17 
REMARK    5  A    between atoms: N3_17  and  C13_18 
REMARK    6  A    between atoms: C16_21  and  N4_22 
ROOT
HETATM    1  C7  UNL     1      24.006   3.603  51.710  1.00  0.00    -0.010 C 
HETATM    2  C8  UNL     1      23.326   4.192  52.680  1.00  0.00     0.092 C 
HETATM    3  N2  UNL     1      22.491   5.278  52.298  1.00  0.00    -0.373 N 
HETATM    4  C9  UNL     1      21.930   5.293  50.978  1.00  0.00     0.217 C 
HETATM    5  C10 UNL     1      20.507   4.725  50.997  1.00  0.00     0.063 C 
HETATM    6  O1  UNL     1      22.611   4.605  50.023  1.00  0.00    -0.348 OA
HETATM    7  C11 UNL     1      23.845   4.115  50.338  1.00  0.00     0.248 C 
HETATM    8  H9  UNL     1      22.289   6.055  52.971  1.00  0.00     0.161 HD
ENDROOT
BRANCH   7   9
HETATM    9  C12 UNL     1      24.947   5.081  49.989  1.00  0.00     0.255 C 
HETATM   10  O2  UNL     1      25.079   6.202  50.573  1.00  0.00    -0.270 OA
HETATM   11  N3  UNL     1      25.884   4.769  48.988  1.00  0.00    -0.325 N 
HETATM   12  H15 UNL     1      25.862   3.873  48.447  1.00  0.00     0.169 HD
BRANCH  11  13
HETATM   13  C13 UNL     1      26.967   5.573  48.554  1.00  0.00     0.035 A 
HETATM   14  C14 UNL     1      28.236   5.030  48.576  1.00  0.00     0.032 A 
HETATM   15  C15 UNL     1      29.296   5.806  48.157  1.00  0.00     0.031 A 
HETATM   16  C16 UNL     1      29.181   7.104  47.711  1.00  0.00     0.030 A 
HETATM   17  C22 UNL     1      27.902   7.595  47.709  1.00  0.00     0.031 A 
HETATM   18  C23 UNL     1      26.800   6.875  48.114  1.00  0.00     0.032 A 
BRANCH  16  19
HETATM   19  N4  UNL     1      30.274   7.893  47.279  1.00  0.00    -0.378 N 
HETATM   20  C17 UNL     1      30.499   8.398  45.958  1.00  0.00     0.153 C 
HETATM   21  C18 UNL     1      30.747   9.887  46.003  1.00  0.00     0.291 C 
HETATM   22  N5  UNL     1      31.757  10.256  46.953  1.00  0.00     0.087 N 
HETATM   23  C19 UNL     1      31.341  11.317  47.840  1.00  0.00     0.310 C 
HETATM   24  C20 UNL     1      32.339   9.139  47.646  1.00  0.00     0.291 C 
HETATM   25  C21 UNL     1      31.300   8.237  48.270  1.00  0.00     0.153 C 
ENDBRANCH  16  19
ENDBRANCH  11  13
ENDBRANCH   7   9
BRANCH   1  26
HETATM   26  C6  UNL     1      24.917   2.459  51.947  1.00  0.00     0.158 C 
BRANCH  26  27
HETATM   27  N1  UNL     1      26.192   2.868  52.510  1.00  0.00    -0.385 N 
HETATM   28  H5  UNL     1      26.473   3.853  52.701  1.00  0.00     0.160 HD
BRANCH  27  29
HETATM   29  C5  UNL     1      27.138   1.840  52.826  1.00  0.00     0.043 A 
HETATM   30  C4  UNL     1      26.834   0.430  52.599  1.00  0.00     0.033 A 
HETATM   31  C3  UNL     1      27.689  -0.536  52.881  1.00  0.00     0.031 A 
HETATM   32  C2  UNL     1      29.006  -0.224  53.443  1.00  0.00     0.022 A 
HETATM   33  C1  UNL     1      29.940  -1.130  53.762  1.00  0.00     0.043 C 
HETATM   34  N6  UNL     1      29.313   1.162  53.670  1.00  0.00    -0.364 N 
HETATM   35  C24 UNL     1      28.326   2.127  53.334  1.00  0.00     0.117 A 
HETATM   36  H32 UNL     1      30.250   1.434  54.075  1.00  0.00     0.165 HD
ENDBRANCH  27  29
ENDBRANCH  26  27
ENDBRANCH   1  26
TORSDOF 6
ENDMDL
MODEL 5
REMARK VINA RESULT:      -8.6      5.132     10.871
REMARK  6 active torsions:
REMARK  status: ('A' for Active; 'I' for Inactive)
REMARK    1  A    between atoms: C5_5  and  N1_6 
REMARK    2  A    between atoms: N1_6  and  C6_7 
REMARK    3  A    between atoms: C6_7  and  C7_8 
REMARK    4  A    between atoms: C11_14  and  C12_15 
REMARK       I    between atoms: C12_15  and  N3_17 
REMARK    5  A    between atoms: N3_17  and  C13_18 
REMARK    6  A    between atoms: C16_21  and  N4_22 
ROOT
HETATM    1  C7  UNL     1      33.894   6.443  48.237  1.00  0.00    -0.010 C 
HETATM    2  C8  UNL     1      34.678   5.584  48.868  1.00  0.00     0.092 C 
HETATM    3  N2  UNL     1      34.454   4.207  48.598  1.00  0.00    -0.373 N 
HETATM    4  C9  UNL     1      33.931   3.825  47.319  1.00  0.00     0.217 C 
HETATM    5  C10 UNL     1      35.067   3.414  46.378  1.00  0.00     0.063 C 
HETATM    6  O1  UNL     1      33.199   4.763  46.660  1.00  0.00    -0.348 OA
HETATM    7  C11 UNL     1      32.869   5.908  47.326  1.00  0.00     0.248 C 
HETATM    8  H9  UNL     1      34.668   3.481  49.324  1.00  0.00     0.161 HD
ENDROOT
BRANCH   7   9
HETATM    9  C12 UNL     1      31.534   5.800  48.016  1.00  0.00     0.255 C 
HETATM   10  O2  UNL     1      31.407   5.290  49.173  1.00  0.00    -0.270 OA
HETATM   11  N3  UNL     1      30.365   6.268  47.392  1.00  0.00    -0.325 N 
HETATM   12  H15 UNL     1      30.362   6.703  46.440  1.00  0.00     0.169 HD
BRANCH  11  13
HETATM   13  C13 UNL     1      29.048   6.233  47.915  1.00  0.00     0.035 A 
HETATM   14  C14 UNL     1      28.522   5.010  48.283  1.00  0.00     0.032 A 
HETATM   15  C15 UNL     1      27.241   4.966  48.793  1.00  0.00     0.031 A 
HETATM   16  C16 UNL     1      26.434   6.069  48.964  1.00  0.00     0.030 A 
HETATM   17  C22 UNL     1      27.003   7.257  48.584  1.00  0.00     0.031 A 
HETATM   18  C23 UNL     1      28.275   7.371  48.069  1.00  0.00     0.032 A 
BRANCH  16  19
HETATM   19  N4  UNL     1      25.122   6.017  49.491  1.00  0.00    -0.378 N 
HETATM   20  C17 UNL     1      24.028   5.236  48.996  1.00  0.00     0.153 C 
HETATM   21  C18 UNL     1      23.422   4.420  50.113  1.00  0.00     0.291 C 
HETATM   22  N5  UNL     1      23.106   5.207  51.271  1.00  0.00     0.087 N 
HETATM   23  C19 UNL     1      23.621   4.644  52.497  1.00  0.00     0.310 C 
HETATM   24  C20 UNL     1      23.407   6.605  51.123  1.00  0.00     0.291 C 
HETATM   25  C21 UNL     1      24.825   6.849  50.663  1.00  0.00     0.153 C 
ENDBRANCH  16  19
ENDBRANCH  11  13
ENDBRANCH   7   9
BRANCH   1  26
HETATM   26  C6  UNL     1      34.004   7.910  48.413  1.00  0.00     0.158 C 
BRANCH  26  27
HETATM   27  N1  UNL     1      33.319   8.650  47.368  1.00  0.00    -0.385 N 
HETATM   28  H5  UNL     1      33.441   8.493  46.345  1.00  0.00     0.160 HD
BRANCH  27  29
HETATM   29  C5  UNL     1      32.405   9.677  47.772  1.00  0.00     0.043 A 
HETATM   30  C4  UNL     1      31.348   9.415  48.744  1.00  0.00     0.033 A 
HETATM   31  C3  UNL     1      30.494  10.345  49.133  1.00  0.00     0.031 A 
HETATM   32  C2  UNL     1      30.577  11.705  48.595  1.00  0.00     0.022 A 
HETATM   33  C1  UNL     1      29.761  12.713  48.926  1.00  0.00     0.043 C 
HETATM   34  N6  UNL     1      31.616  11.971  47.638  1.00  0.00    -0.364 N 
HETATM   35  C24 UNL     1      32.485  10.905  47.283  1.00  0.00     0.117 A 
HETATM   36  H32 UNL     1      31.713  12.937  47.222  1.00  0.00     0.165 HD
ENDBRANCH  27  29
ENDBRANCH  26  27
ENDBRANCH   1  26
TORSDOF 6
ENDMDL
MODEL 6
REMARK VINA RESULT:      -8.3      3.087      6.026
REMARK  6 active torsions:
REMARK  status: ('A' for Active; 'I' for Inactive)
REMARK    1  A    between atoms: C5_5  and  N1_6 
REMARK    2  A    between atoms: N1_6  and  C6_7 
REMARK    3  A    between atoms: C6_7  and  C7_8 
REMARK    4  A    between atoms: C11_14  and  C12_15 
REMARK       I    between atoms: C12_15  and  N3_17 
REMARK    5  A    between atoms: N3_17  and  C13_18 
REMARK    6  A    between atoms: C16_21  and  N4_22 
ROOT
HETATM    1  C7  UNL     1      26.037   0.283  53.156  1.00  0.00    -0.010 C 
HETATM    2  C8  UNL     1      27.181   0.091  52.520  1.00  0.00     0.092 C 
HETATM    3  N2  UNL     1      28.056   1.209  52.442  1.00  0.00    -0.373 N 
HETATM    4  C9  UNL     1      28.023   2.192  53.485  1.00  0.00     0.217 C 
HETATM    5  C10 UNL     1      29.119   1.911  54.518  1.00  0.00     0.063 C 
HETATM    6  O1  UNL     1      26.856   2.303  54.176  1.00  0.00    -0.348 OA
HETATM    7  C11 UNL     1      25.769   1.617  53.718  1.00  0.00     0.248 C 
HETATM    8  H9  UNL     1      28.716   1.313  51.634  1.00  0.00     0.161 HD
ENDROOT
BRANCH   7   9
HETATM    9  C12 UNL     1      24.931   2.442  52.776  1.00  0.00     0.255 C 
HETATM   10  O2  UNL     1      24.210   3.408  53.177  1.00  0.00    -0.270 OA
HETATM   11  N3  UNL     1      24.919   2.165  51.398  1.00  0.00    -0.325 N 
HETATM   12  H15 UNL     1      25.476   1.391  50.968  1.00  0.00     0.169 HD
BRANCH  11  13
HETATM   13  C13 UNL     1      24.184   2.850  50.398  1.00  0.00     0.035 A 
HETATM   14  C14 UNL     1      22.965   2.330  50.009  1.00  0.00     0.032 A 
HETATM   15  C15 UNL     1      22.243   2.989  49.037  1.00  0.00     0.031 A 
HETATM   16  C16 UNL     1      22.655   4.146  48.413  1.00  0.00     0.030 A 
HETATM   17  C22 UNL     1      23.870   4.621  48.835  1.00  0.00     0.031 A 
HETATM   18  C23 UNL     1      24.640   4.013  49.801  1.00  0.00     0.032 A 
BRANCH  16  19
HETATM   19  N4  UNL     1      21.907   4.820  47.418  1.00  0.00    -0.378 N 
HETATM   20  C17 UNL     1      22.351   5.907  46.599  1.00  0.00     0.153 C 
HETATM   21  C18 UNL     1      22.104   5.598  45.142  1.00  0.00     0.291 C 
HETATM   22  N5  UNL     1      20.757   5.178  44.881  1.00  0.00     0.087 N 
HETATM   23  C19 UNL     1      20.681   3.958  44.112  1.00  0.00     0.310 C 
HETATM   24  C20 UNL     1      19.917   5.160  46.048  1.00  0.00     0.291 C 
HETATM   25  C21 UNL     1      20.525   4.379  47.189  1.00  0.00     0.153 C 
ENDBRANCH  16  19
ENDBRANCH  11  13
ENDBRANCH   7   9
BRANCH   1  26
HETATM   26  C6  UNL     1      25.022  -0.784  53.321  1.00  0.00     0.158 C 
BRANCH  26  27
HETATM   27  N1  UNL     1      24.071  -0.490  54.378  1.00  0.00    -0.385 N 
HETATM   28  H5  UNL     1      24.324  -0.222  55.353  1.00  0.00     0.160 HD
BRANCH  27  29
HETATM   29  C5  UNL     1      22.677  -0.576  54.060  1.00  0.00     0.043 A 
HETATM   30  C4  UNL     1      22.084   0.248  53.010  1.00  0.00     0.033 A 
HETATM   31  C3  UNL     1      20.802   0.187  52.696  1.00  0.00     0.031 A 
HETATM   32  C2  UNL     1      19.906  -0.732  53.404  1.00  0.00     0.022 A 
HETATM   33  C1  UNL     1      18.596  -0.866  53.160  1.00  0.00     0.043 C 
HETATM   34  N6  UNL     1      20.482  -1.546  54.439  1.00  0.00    -0.364 N 
HETATM   35  C24 UNL     1      21.871  -1.407  54.702  1.00  0.00     0.117 A 
HETATM   36  H32 UNL     1      19.874  -2.222  54.977  1.00  0.00     0.165 HD
ENDBRANCH  27  29
ENDBRANCH  26  27
ENDBRANCH   1  26
TORSDOF 6
ENDMDL
MODEL 7
REMARK VINA RESULT:      -8.1      3.223      9.222
REMARK  6 active torsions:
REMARK  status: ('A' for Active; 'I' for Inactive)
REMARK    1  A    between atoms: C5_5  and  N1_6 
REMARK    2  A    between atoms: N1_6  and  C6_7 
REMARK    3  A    between atoms: C6_7  and  C7_8 
REMARK    4  A    between atoms: C11_14  and  C12_15 
REMARK       I    between atoms: C12_15  and  N3_17 
REMARK    5  A    between atoms: N3_17  and  C13_18 
REMARK    6  A    between atoms: C16_21  and  N4_22 
ROOT
HETATM    1  C7  UNL     1      23.430   2.505  51.737  1.00  0.00    -0.010 C 
HETATM    2  C8  UNL     1      23.785   2.109  50.525  1.00  0.00     0.092 C 
HETATM    3  N2  UNL     1      23.025   2.628  49.442  1.00  0.00    -0.373 N 
HETATM    4  C9  UNL     1      22.416   3.920  49.575  1.00  0.00     0.217 C 
HETATM    5  C10 UNL     1      23.305   4.997  48.947  1.00  0.00     0.063 C 
HETATM    6  O1  UNL     1      22.142   4.331  50.843  1.00  0.00    -0.348 OA
HETATM    7  C11 UNL     1      22.293   3.433  51.859  1.00  0.00     0.248 C 
HETATM    8  H9  UNL     1      22.912   2.076  48.559  1.00  0.00     0.161 HD
ENDROOT
BRANCH   7   9
HETATM    9  C12 UNL     1      21.017   2.689  52.156  1.00  0.00     0.255 C 
HETATM   10  O2  UNL     1      20.025   3.242  52.724  1.00  0.00    -0.270 OA
HETATM   11  N3  UNL     1      20.880   1.334  51.808  1.00  0.00    -0.325 N 
HETATM   12  H15 UNL     1      21.639   0.787  51.338  1.00  0.00     0.169 HD
BRANCH  11  13
HETATM   13  C13 UNL     1      19.748   0.510  52.023  1.00  0.00     0.035 A 
HETATM   14  C14 UNL     1      18.730   0.539  51.090  1.00  0.00     0.032 A 
HETATM   15  C15 UNL     1      17.623  -0.259  51.292  1.00  0.00     0.031 A 
HETATM   16  C16 UNL     1      17.454  -1.095  52.373  1.00  0.00     0.030 A 
HETATM   17  C22 UNL     1      18.492  -1.087  53.268  1.00  0.00     0.031 A 
HETATM   18  C23 UNL     1      19.624  -0.316  53.127  1.00  0.00     0.032 A 
BRANCH  16  19
HETATM   19  N4  UNL     1      16.317  -1.914  52.572  1.00  0.00    -0.378 N 
HETATM   20  C17 UNL     1      14.949  -1.550  52.357  1.00  0.00     0.153 C 
HETATM   21  C18 UNL     1      14.271  -2.567  51.470  1.00  0.00     0.291 C 
HETATM   22  N5  UNL     1      14.456  -3.915  51.924  1.00  0.00     0.087 N 
HETATM   23  C19 UNL     1      14.916  -4.806  50.884  1.00  0.00     0.310 C 
HETATM   24  C20 UNL     1      15.224  -4.021  53.135  1.00  0.00     0.291 C 
HETATM   25  C21 UNL     1      16.539  -3.282  53.056  1.00  0.00     0.153 C 
ENDBRANCH  16  19
ENDBRANCH  11  13
ENDBRANCH   7   9
BRANCH   1  26
HETATM   26  C6  UNL     1      24.124   2.052  52.965  1.00  0.00     0.158 C 
BRANCH  26  27
HETATM   27  N1  UNL     1      24.458   0.640  52.930  1.00  0.00    -0.385 N 
HETATM   28  H5  UNL     1      23.773  -0.134  52.793  1.00  0.00     0.160 HD
BRANCH  27  29
HETATM   29  C5  UNL     1      25.834   0.279  53.097  1.00  0.00     0.043 A 
HETATM   30  C4  UNL     1      26.889   1.288  53.104  1.00  0.00     0.033 A 
HETATM   31  C3  UNL     1      28.165   0.981  53.257  1.00  0.00     0.031 A 
HETATM   32  C2  UNL     1      28.580  -0.413  53.431  1.00  0.00     0.022 A 
HETATM   33  C1  UNL     1      29.844  -0.824  53.593  1.00  0.00     0.043 C 
HETATM   34  N6  UNL     1      27.546  -1.412  53.425  1.00  0.00    -0.364 N 
HETATM   35  C24 UNL     1      26.204  -0.983  53.253  1.00  0.00     0.117 A 
HETATM   36  H32 UNL     1      27.799  -2.431  53.546  1.00  0.00     0.165 HD
ENDBRANCH  27  29
ENDBRANCH  26  27
ENDBRANCH   1  26
TORSDOF 6
ENDMDL
MODEL 8
REMARK VINA RESULT:      -8.1      2.374      8.155
REMARK  6 active torsions:
REMARK  status: ('A' for Active; 'I' for Inactive)
REMARK    1  A    between atoms: C5_5  and  N1_6 
REMARK    2  A    between atoms: N1_6  and  C6_7 
REMARK    3  A    between atoms: C6_7  and  C7_8 
REMARK    4  A    between atoms: C11_14  and  C12_15 
REMARK       I    between atoms: C12_15  and  N3_17 
REMARK    5  A    between atoms: N3_17  and  C13_18 
REMARK    6  A    between atoms: C16_21  and  N4_22 
ROOT
HETATM    1  C7  UNL     1      25.642   4.317  50.194  1.00  0.00    -0.010 C 
HETATM    2  C8  UNL     1      25.864   4.983  49.072  1.00  0.00     0.092 C 
HETATM    3  N2  UNL     1      25.053   6.129  48.847  1.00  0.00    -0.373 N 
HETATM    4  C9  UNL     1      24.551   6.859  49.974  1.00  0.00     0.217 C 
HETATM    5  C10 UNL     1      25.458   8.054  50.283  1.00  0.00     0.063 C 
HETATM    6  O1  UNL     1      24.415   6.162  51.134  1.00  0.00    -0.348 OA
HETATM    7  C11 UNL     1      24.588   4.809  51.097  1.00  0.00     0.248 C 
HETATM    8  H9  UNL     1      24.827   6.436  47.870  1.00  0.00     0.161 HD
ENDROOT
BRANCH   7   9
HETATM    9  C12 UNL     1      23.292   4.075  50.867  1.00  0.00     0.255 C 
HETATM   10  O2  UNL     1      22.562   4.288  49.850  1.00  0.00    -0.270 OA
HETATM   11  N3  UNL     1      22.840   3.113  51.787  1.00  0.00    -0.325 N 
HETATM   12  H15 UNL     1      23.367   2.865  52.657  1.00  0.00     0.169 HD
BRANCH  11  13
HETATM   13  C13 UNL     1      21.650   2.349  51.704  1.00  0.00     0.035 A 
HETATM   14  C14 UNL     1      21.724   1.077  51.170  1.00  0.00     0.032 A 
HETATM   15  C15 UNL     1      20.570   0.326  51.085  1.00  0.00     0.031 A 
HETATM   16  C16 UNL     1      19.329   0.758  51.498  1.00  0.00     0.030 A 
HETATM   17  C22 UNL     1      19.310   2.026  52.019  1.00  0.00     0.031 A 
HETATM   18  C23 UNL     1      20.424   2.827  52.134  1.00  0.00     0.032 A 
BRANCH  16  19
HETATM   19  N4  UNL     1      18.149  -0.019  51.410  1.00  0.00    -0.378 N 
HETATM   20  C17 UNL     1      17.636  -0.915  52.402  1.00  0.00     0.153 C 
HETATM   21  C18 UNL     1      16.191  -0.591  52.699  1.00  0.00     0.291 C 
HETATM   22  N5  UNL     1      15.384  -0.500  51.516  1.00  0.00     0.087 N 
HETATM   23  C19 UNL     1      14.594   0.707  51.460  1.00  0.00     0.310 C 
HETATM   24  C20 UNL     1      16.106  -0.756  50.299  1.00  0.00     0.291 C 
HETATM   25  C21 UNL     1      17.357   0.082  50.178  1.00  0.00     0.153 C 
ENDBRANCH  16  19
ENDBRANCH  11  13
ENDBRANCH   7   9
BRANCH   1  26
HETATM   26  C6  UNL     1      26.404   3.103  50.572  1.00  0.00     0.158 C 
BRANCH  26  27
HETATM   27  N1  UNL     1      26.438   2.890  52.008  1.00  0.00    -0.385 N 
HETATM   28  H5  UNL     1      25.895   3.441  52.707  1.00  0.00     0.160 HD
BRANCH  27  29
HETATM   29  C5  UNL     1      27.282   1.845  52.503  1.00  0.00     0.043 A 
HETATM   30  C4  UNL     1      26.909   0.439  52.373  1.00  0.00     0.033 A 
HETATM   31  C3  UNL     1      27.670  -0.543  52.820  1.00  0.00     0.031 A 
HETATM   32  C2  UNL     1      28.947  -0.255  53.479  1.00  0.00     0.022 A 
HETATM   33  C1  UNL     1      29.786  -1.178  53.965  1.00  0.00     0.043 C 
HETATM   34  N6  UNL     1      29.321   1.127  53.611  1.00  0.00    -0.364 N 
HETATM   35  C24 UNL     1      28.435   2.110  53.098  1.00  0.00     0.117 A 
HETATM   36  H32 UNL     1      30.232   1.382  54.081  1.00  0.00     0.165 HD
ENDBRANCH  27  29
ENDBRANCH  26  27
ENDBRANCH   1  26
TORSDOF 6
ENDMDL
MODEL 9
REMARK VINA RESULT:      -8.0      3.069      8.998
REMARK  6 active torsions:
REMARK  status: ('A' for Active; 'I' for Inactive)
REMARK    1  A    between atoms: C5_5  and  N1_6 
REMARK    2  A    between atoms: N1_6  and  C6_7 
REMARK    3  A    between atoms: C6_7  and  C7_8 
REMARK    4  A    between atoms: C11_14  and  C12_15 
REMARK       I    between atoms: C12_15  and  N3_17 
REMARK    5  A    between atoms: N3_17  and  C13_18 
REMARK    6  A    between atoms: C16_21  and  N4_22 
ROOT
HETATM    1  C7  UNL     1      26.384   1.899  52.265  1.00  0.00    -0.010 C 
HETATM    2  C8  UNL     1      26.891   2.503  53.327  1.00  0.00     0.092 C 
HETATM    3  N2  UNL     1      26.695   1.854  54.577  1.00  0.00    -0.373 N 
HETATM    4  C9  UNL     1      26.577   0.426  54.608  1.00  0.00     0.217 C 
HETATM    5  C10 UNL     1      27.929  -0.214  54.940  1.00  0.00     0.063 C 
HETATM    6  O1  UNL     1      26.133  -0.170  53.469  1.00  0.00    -0.348 OA
HETATM    7  C11 UNL     1      25.669   0.627  52.463  1.00  0.00     0.248 C 
HETATM    8  H9  UNL     1      26.637   2.412  55.462  1.00  0.00     0.161 HD
ENDROOT
BRANCH   7   9
HETATM    9  C12 UNL     1      24.182   0.852  52.556  1.00  0.00     0.255 C 
HETATM   10  O2  UNL     1      23.685   1.922  53.027  1.00  0.00    -0.270 OA
HETATM   11  N3  UNL     1      23.280  -0.133  52.117  1.00  0.00    -0.325 N 
HETATM   12  H15 UNL     1      23.588  -1.049  51.715  1.00  0.00     0.169 HD
BRANCH  11  13
HETATM   13  C13 UNL     1      21.865  -0.063  52.142  1.00  0.00     0.035 A 
HETATM   14  C14 UNL     1      21.213   0.422  51.025  1.00  0.00     0.032 A 
HETATM   15  C15 UNL     1      19.836   0.495  51.041  1.00  0.00     0.031 A 
HETATM   16  C16 UNL     1      19.049   0.115  52.106  1.00  0.00     0.030 A 
HETATM   17  C22 UNL     1      19.744  -0.359  53.188  1.00  0.00     0.031 A 
HETATM   18  C23 UNL     1      21.117  -0.458  53.238  1.00  0.00     0.032 A 
BRANCH  16  19
HETATM   19  N4  UNL     1      17.636   0.189  52.114  1.00  0.00    -0.378 N 
HETATM   20  C17 UNL     1      16.830   1.270  51.633  1.00  0.00     0.153 C 
HETATM   21  C18 UNL     1      15.788   0.756  50.668  1.00  0.00     0.291 C 
HETATM   22  N5  UNL     1      15.037  -0.348  51.194  1.00  0.00     0.087 N 
HETATM   23  C19 UNL     1      14.973  -1.472  50.291  1.00  0.00     0.310 C 
HETATM   24  C20 UNL     1      15.411  -0.721  52.531  1.00  0.00     0.291 C 
HETATM   25  C21 UNL     1      16.897  -0.948  52.677  1.00  0.00     0.153 C 
ENDBRANCH  16  19
ENDBRANCH  11  13
ENDBRANCH   7   9
BRANCH   1  26
HETATM   26  C6  UNL     1      26.506   2.449  50.894  1.00  0.00     0.158 C 
BRANCH  26  27
HETATM   27  N1  UNL     1      26.045   3.823  50.801  1.00  0.00    -0.385 N 
HETATM   28  H5  UNL     1      26.657   4.664  50.865  1.00  0.00     0.160 HD
BRANCH  27  29
HETATM   29  C5  UNL     1      24.643   4.041  50.607  1.00  0.00     0.043 A 
HETATM   30  C4  UNL     1      23.876   3.251  49.648  1.00  0.00     0.033 A 
HETATM   31  C3  UNL     1      22.582   3.431  49.452  1.00  0.00     0.031 A 
HETATM   32  C2  UNL     1      21.850   4.453  50.206  1.00  0.00     0.022 A 
HETATM   33  C1  UNL     1      20.542   4.712  50.078  1.00  0.00     0.043 C 
HETATM   34  N6  UNL     1      22.599   5.235  51.151  1.00  0.00    -0.364 N 
HETATM   35  C24 UNL     1      23.986   4.965  51.290  1.00  0.00     0.117 A 
HETATM   36  H32 UNL     1      22.113   5.985  51.715  1.00  0.00     0.165 HD
ENDBRANCH  27  29
ENDBRANCH  26  27
ENDBRANCH   1  26
TORSDOF 6
ENDMDL
