MODEL 1
REMARK VINA RESULT:      -8.4      0.000      0.000
REMARK  2 active torsions:
REMARK  status: ('A' for Active; 'I' for Inactive)
REMARK    1  A    between atoms: N2_12  and  C10_13 
REMARK    2  A    between atoms: C10_13  and  C11_14 
ROOT
HETATM    1  C1  UNL     1      25.452   2.794  50.957  1.00  0.00     0.112 A 
HETATM    2  N1  UNL     1      24.213   2.497  50.695  1.00  0.00    -0.237 NA
HETATM    3  C2  UNL     1      23.590   1.575  51.596  1.00  0.00     0.197 A 
HETATM    4  O1  UNL     1      22.375   1.087  51.603  1.00  0.00    -0.289 OA
HETATM    5  C3  UNL     1      22.186   0.261  52.606  1.00  0.00     0.090 A 
HETATM    6  C4  UNL     1      21.113  -0.490  53.038  1.00  0.00     0.038 A 
HETATM    7  C5  UNL     1      21.196  -1.299  54.162  1.00  0.00     0.003 A 
HETATM    8  C6  UNL     1      22.416  -1.315  54.828  1.00  0.00     0.001 A 
HETATM    9  C7  UNL     1      23.493  -0.568  54.402  1.00  0.00     0.017 A 
HETATM   10  C8  UNL     1      23.386   0.227  53.285  1.00  0.00     0.029 A 
HETATM   11  C9  UNL     1      24.296   1.055  52.663  1.00  0.00     0.098 A 
HETATM   12  N2  UNL     1      25.635   1.375  52.944  1.00  0.00    -0.368 N 
HETATM   13  C17 UNL     1      26.318   2.309  52.062  1.00  0.00     0.170 A 
ENDROOT
BRANCH  12  14
HETATM   14  C10 UNL     1      26.370   0.841  54.046  1.00  0.00     0.162 C 
BRANCH  14  15
HETATM   15  C11 UNL     1      27.245  -0.314  53.636  1.00  0.00    -0.040 A 
HETATM   16  C12 UNL     1      26.783  -1.422  52.953  1.00  0.00     0.009 A 
HETATM   17  C13 UNL     1      27.633  -2.450  52.603  1.00  0.00     0.001 A 
HETATM   18  C14 UNL     1      28.963  -2.345  52.954  1.00  0.00     0.000 A 
HETATM   19  C15 UNL     1      29.507  -1.278  53.635  1.00  0.00     0.001 A 
HETATM   20  C16 UNL     1      28.602  -0.279  53.958  1.00  0.00     0.009 A 
ENDBRANCH  14  15
ENDBRANCH  12  14
TORSDOF 2
ENDMDL
MODEL 2
REMARK VINA RESULT:      -8.0      1.738      3.261
REMARK  2 active torsions:
REMARK  status: ('A' for Active; 'I' for Inactive)
REMARK    1  A    between atoms: N2_12  and  C10_13 
REMARK    2  A    between atoms: C10_13  and  C11_14 
ROOT
HETATM    1  C1  UNL     1      23.526  -1.607  55.727  1.00  0.00     0.112 A 
HETATM    2  N1  UNL     1      22.337  -1.588  55.198  1.00  0.00    -0.237 NA
HETATM    3  C2  UNL     1      22.205  -0.830  53.992  1.00  0.00     0.197 A 
HETATM    4  O1  UNL     1      21.158  -0.621  53.233  1.00  0.00    -0.289 OA
HETATM    5  C3  UNL     1      21.445   0.139  52.202  1.00  0.00     0.090 A 
HETATM    6  C4  UNL     1      20.712   0.633  51.144  1.00  0.00     0.038 A 
HETATM    7  C5  UNL     1      21.290   1.436  50.170  1.00  0.00     0.003 A 
HETATM    8  C6  UNL     1      22.644   1.715  50.317  1.00  0.00     0.001 A 
HETATM    9  C7  UNL     1      23.383   1.225  51.372  1.00  0.00     0.017 A 
HETATM   10  C8  UNL     1      22.788   0.431  52.324  1.00  0.00     0.029 A 
HETATM   11  C9  UNL     1      23.295  -0.173  53.455  1.00  0.00     0.098 A 
HETATM   12  N2  UNL     1      24.578  -0.193  54.027  1.00  0.00    -0.368 N 
HETATM   13  C17 UNL     1      24.772  -0.950  55.255  1.00  0.00     0.170 A 
ENDROOT
BRANCH  12  14
HETATM   14  C10 UNL     1      25.709   0.483  53.477  1.00  0.00     0.162 C 
BRANCH  14  15
HETATM   15  C11 UNL     1      26.908  -0.421  53.359  1.00  0.00    -0.040 A 
HETATM   16  C12 UNL     1      26.875  -1.663  52.758  1.00  0.00     0.009 A 
HETATM   17  C13 UNL     1      28.008  -2.447  52.679  1.00  0.00     0.001 A 
HETATM   18  C14 UNL     1      29.179  -1.958  53.220  1.00  0.00     0.000 A 
HETATM   19  C15 UNL     1      29.299  -0.732  53.838  1.00  0.00     0.001 A 
HETATM   20  C16 UNL     1      28.128   0.007  53.884  1.00  0.00     0.009 A 
ENDBRANCH  14  15
ENDBRANCH  12  14
TORSDOF 2
ENDMDL
MODEL 3
REMARK VINA RESULT:      -8.0      2.234      4.893
REMARK  2 active torsions:
REMARK  status: ('A' for Active; 'I' for Inactive)
REMARK    1  A    between atoms: N2_12  and  C10_13 
REMARK    2  A    between atoms: C10_13  and  C11_14 
ROOT
HETATM    1  C1  UNL     1      28.169   1.314  53.885  1.00  0.00     0.112 A 
HETATM    2  N1  UNL     1      27.729   0.565  54.852  1.00  0.00    -0.237 NA
HETATM    3  C2  UNL     1      26.378   0.110  54.722  1.00  0.00     0.197 A 
HETATM    4  O1  UNL     1      25.658  -0.645  55.513  1.00  0.00    -0.289 OA
HETATM    5  C3  UNL     1      24.450  -0.839  55.038  1.00  0.00     0.090 A 
HETATM    6  C4  UNL     1      23.348  -1.538  55.483  1.00  0.00     0.038 A 
HETATM    7  C5  UNL     1      22.166  -1.572  54.756  1.00  0.00     0.003 A 
HETATM    8  C6  UNL     1      22.151  -0.865  53.559  1.00  0.00     0.001 A 
HETATM    9  C7  UNL     1      23.248  -0.163  53.109  1.00  0.00     0.017 A 
HETATM   10  C8  UNL     1      24.409  -0.146  53.846  1.00  0.00     0.029 A 
HETATM   11  C9  UNL     1      25.623   0.467  53.622  1.00  0.00     0.098 A 
HETATM   12  N2  UNL     1      26.100   1.277  52.577  1.00  0.00    -0.368 N 
HETATM   13  C17 UNL     1      27.467   1.768  52.657  1.00  0.00     0.170 A 
ENDROOT
BRANCH  12  14
HETATM   14  C10 UNL     1      25.324   1.649  51.437  1.00  0.00     0.162 C 
BRANCH  14  15
HETATM   15  C11 UNL     1      24.734   3.028  51.580  1.00  0.00    -0.040 A 
HETATM   16  C12 UNL     1      23.965   3.425  52.656  1.00  0.00     0.009 A 
HETATM   17  C13 UNL     1      23.451   4.703  52.732  1.00  0.00     0.001 A 
HETATM   18  C14 UNL     1      23.724   5.579  51.701  1.00  0.00     0.000 A 
HETATM   19  C15 UNL     1      24.480   5.265  50.593  1.00  0.00     0.001 A 
HETATM   20  C16 UNL     1      24.967   3.968  50.576  1.00  0.00     0.009 A 
ENDBRANCH  14  15
ENDBRANCH  12  14
TORSDOF 2
ENDMDL
MODEL 4
REMARK VINA RESULT:      -7.6      2.430      6.086
REMARK  2 active torsions:
REMARK  status: ('A' for Active; 'I' for Inactive)
REMARK    1  A    between atoms: N2_12  and  C10_13 
REMARK    2  A    between atoms: C10_13  and  C11_14 
ROOT
HETATM    1  C1  UNL     1      22.125  -1.284  54.933  1.00  0.00     0.112 A 
HETATM    2  N1  UNL     1      23.222  -1.446  55.612  1.00  0.00    -0.237 NA
HETATM    3  C2  UNL     1      24.401  -0.877  55.034  1.00  0.00     0.197 A 
HETATM    4  O1  UNL     1      25.637  -0.870  55.466  1.00  0.00    -0.289 OA
HETATM    5  C3  UNL     1      26.440  -0.237  54.641  1.00  0.00     0.090 A 
HETATM    6  C4  UNL     1      27.791   0.037  54.643  1.00  0.00     0.038 A 
HETATM    7  C5  UNL     1      28.392   0.745  53.611  1.00  0.00     0.003 A 
HETATM    8  C6  UNL     1      27.561   1.162  52.578  1.00  0.00     0.001 A 
HETATM    9  C7  UNL     1      26.210   0.891  52.569  1.00  0.00     0.017 A 
HETATM   10  C8  UNL     1      25.638   0.188  53.603  1.00  0.00     0.029 A 
HETATM   11  C9  UNL     1      24.336  -0.206  53.828  1.00  0.00     0.098 A 
HETATM   12  N2  UNL     1      23.150  -0.032  53.095  1.00  0.00    -0.368 N 
HETATM   13  C17 UNL     1      21.920  -0.589  53.635  1.00  0.00     0.170 A 
ENDROOT
BRANCH  12  14
HETATM   14  C10 UNL     1      23.076   0.661  51.849  1.00  0.00     0.162 C 
BRANCH  14  15
HETATM   15  C11 UNL     1      22.636   2.091  52.021  1.00  0.00    -0.040 A 
HETATM   16  C12 UNL     1      21.336   2.520  51.842  1.00  0.00     0.009 A 
HETATM   17  C13 UNL     1      20.992   3.845  52.015  1.00  0.00     0.001 A 
HETATM   18  C14 UNL     1      21.983   4.735  52.371  1.00  0.00     0.000 A 
HETATM   19  C15 UNL     1      23.303   4.393  52.568  1.00  0.00     0.001 A 
HETATM   20  C16 UNL     1      23.585   3.049  52.380  1.00  0.00     0.009 A 
ENDBRANCH  14  15
ENDBRANCH  12  14
TORSDOF 2
ENDMDL
MODEL 5
REMARK VINA RESULT:      -7.6      2.506      5.843
REMARK  2 active torsions:
REMARK  status: ('A' for Active; 'I' for Inactive)
REMARK    1  A    between atoms: N2_12  and  C10_13 
REMARK    2  A    between atoms: C10_13  and  C11_14 
ROOT
HETATM    1  C1  UNL     1      20.599   0.111  54.189  1.00  0.00     0.112 A 
HETATM    2  N1  UNL     1      21.535  -0.741  54.490  1.00  0.00    -0.237 NA
HETATM    3  C2  UNL     1      22.826  -0.468  53.938  1.00  0.00     0.197 A 
HETATM    4  O1  UNL     1      23.953  -1.124  54.054  1.00  0.00    -0.289 OA
HETATM    5  C3  UNL     1      24.927  -0.546  53.388  1.00  0.00     0.090 A 
HETATM    6  C4  UNL     1      26.261  -0.837  53.200  1.00  0.00     0.038 A 
HETATM    7  C5  UNL     1      27.079  -0.028  52.423  1.00  0.00     0.003 A 
HETATM    8  C6  UNL     1      26.484   1.088  51.846  1.00  0.00     0.001 A 
HETATM    9  C7  UNL     1      25.151   1.385  52.030  1.00  0.00     0.017 A 
HETATM   10  C8  UNL     1      24.360   0.569  52.804  1.00  0.00     0.029 A 
HETATM   11  C9  UNL     1      23.025   0.641  53.138  1.00  0.00     0.098 A 
HETATM   12  N2  UNL     1      22.013   1.560  52.813  1.00  0.00    -0.368 N 
HETATM   13  C17 UNL     1      20.680   1.333  53.348  1.00  0.00     0.170 A 
ENDROOT
BRANCH  12  14
HETATM   14  C10 UNL     1      22.212   2.708  51.987  1.00  0.00     0.162 C 
BRANCH  14  15
HETATM   15  C11 UNL     1      22.196   2.361  50.521  1.00  0.00    -0.040 A 
HETATM   16  C12 UNL     1      21.483   1.305  49.991  1.00  0.00     0.009 A 
HETATM   17  C13 UNL     1      21.506   1.036  48.638  1.00  0.00     0.001 A 
HETATM   18  C14 UNL     1      22.264   1.851  47.824  1.00  0.00     0.000 A 
HETATM   19  C15 UNL     1      23.005   2.924  48.269  1.00  0.00     0.001 A 
HETATM   20  C16 UNL     1      22.940   3.142  49.636  1.00  0.00     0.009 A 
ENDBRANCH  14  15
ENDBRANCH  12  14
TORSDOF 2
ENDMDL
MODEL 6
REMARK VINA RESULT:      -7.5      2.133      5.852
REMARK  2 active torsions:
REMARK  status: ('A' for Active; 'I' for Inactive)
REMARK    1  A    between atoms: N2_12  and  C10_13 
REMARK    2  A    between atoms: C10_13  and  C11_14 
ROOT
HETATM    1  C1  UNL     1      22.786  -0.265  53.240  1.00  0.00     0.112 A 
HETATM    2  N1  UNL     1      23.760  -1.101  53.449  1.00  0.00    -0.237 NA
HETATM    3  C2  UNL     1      25.065  -0.523  53.553  1.00  0.00     0.197 A 
HETATM    4  O1  UNL     1      26.228  -1.088  53.758  1.00  0.00    -0.289 OA
HETATM    5  C3  UNL     1      27.201  -0.208  53.789  1.00  0.00     0.090 A 
HETATM    6  C4  UNL     1      28.565  -0.295  53.969  1.00  0.00     0.038 A 
HETATM    7  C5  UNL     1      29.375   0.832  53.953  1.00  0.00     0.003 A 
HETATM    8  C6  UNL     1      28.741   2.051  53.746  1.00  0.00     0.001 A 
HETATM    9  C7  UNL     1      27.378   2.146  53.564  1.00  0.00     0.017 A 
HETATM   10  C8  UNL     1      26.596   1.015  53.585  1.00  0.00     0.029 A 
HETATM   11  C9  UNL     1      25.237   0.842  53.432  1.00  0.00     0.098 A 
HETATM   12  N2  UNL     1      24.184   1.744  53.205  1.00  0.00    -0.368 N 
HETATM   13  C17 UNL     1      22.835   1.212  53.092  1.00  0.00     0.170 A 
ENDROOT
BRANCH  12  14
HETATM   14  C10 UNL     1      24.355   3.157  53.080  1.00  0.00     0.162 C 
BRANCH  14  15
HETATM   15  C11 UNL     1      24.220   3.619  51.652  1.00  0.00    -0.040 A 
HETATM   16  C12 UNL     1      23.154   4.361  51.185  1.00  0.00     0.009 A 
HETATM   17  C13 UNL     1      23.085   4.757  49.865  1.00  0.00     0.001 A 
HETATM   18  C14 UNL     1      24.112   4.390  49.019  1.00  0.00     0.000 A 
HETATM   19  C15 UNL     1      25.210   3.651  49.403  1.00  0.00     0.001 A 
HETATM   20  C16 UNL     1      25.221   3.285  50.739  1.00  0.00     0.009 A 
ENDBRANCH  14  15
ENDBRANCH  12  14
TORSDOF 2
ENDMDL
MODEL 7
REMARK VINA RESULT:      -7.5      2.244      5.106
REMARK  2 active torsions:
REMARK  status: ('A' for Active; 'I' for Inactive)
REMARK    1  A    between atoms: N2_12  and  C10_13 
REMARK    2  A    between atoms: C10_13  and  C11_14 
ROOT
HETATM    1  C1  UNL     1      26.785   1.586  51.719  1.00  0.00     0.112 A 
HETATM    2  N1  UNL     1      26.625   0.523  52.451  1.00  0.00    -0.237 NA
HETATM    3  C2  UNL     1      25.291   0.277  52.907  1.00  0.00     0.197 A 
HETATM    4  O1  UNL     1      24.813  -0.692  53.647  1.00  0.00    -0.289 OA
HETATM    5  C3  UNL     1      23.522  -0.563  53.848  1.00  0.00     0.090 A 
HETATM    6  C4  UNL     1      22.583  -1.300  54.538  1.00  0.00     0.038 A 
HETATM    7  C5  UNL     1      21.249  -0.920  54.583  1.00  0.00     0.003 A 
HETATM    8  C6  UNL     1      20.910   0.241  53.898  1.00  0.00     0.001 A 
HETATM    9  C7  UNL     1      21.843   0.983  53.206  1.00  0.00     0.017 A 
HETATM   10  C8  UNL     1      23.159   0.585  53.175  1.00  0.00     0.029 A 
HETATM   11  C9  UNL     1      24.265   1.139  52.568  1.00  0.00     0.098 A 
HETATM   12  N2  UNL     1      24.440   2.287  51.777  1.00  0.00    -0.368 N 
HETATM   13  C17 UNL     1      25.776   2.587  51.285  1.00  0.00     0.170 A 
ENDROOT
BRANCH  12  14
HETATM   14  C10 UNL     1      23.385   3.182  51.424  1.00  0.00     0.162 C 
BRANCH  14  15
HETATM   15  C11 UNL     1      22.885   2.942  50.023  1.00  0.00    -0.040 A 
HETATM   16  C12 UNL     1      22.295   1.764  49.610  1.00  0.00     0.009 A 
HETATM   17  C13 UNL     1      21.855   1.604  48.312  1.00  0.00     0.001 A 
HETATM   18  C14 UNL     1      22.021   2.653  47.433  1.00  0.00     0.000 A 
HETATM   19  C15 UNL     1      22.599   3.861  47.761  1.00  0.00     0.001 A 
HETATM   20  C16 UNL     1      23.019   3.960  49.078  1.00  0.00     0.009 A 
ENDBRANCH  14  15
ENDBRANCH  12  14
TORSDOF 2
ENDMDL
MODEL 8
REMARK VINA RESULT:      -7.4      2.569      4.991
REMARK  2 active torsions:
REMARK  status: ('A' for Active; 'I' for Inactive)
REMARK    1  A    between atoms: N2_12  and  C10_13 
REMARK    2  A    between atoms: C10_13  and  C11_14 
ROOT
HETATM    1  C1  UNL     1      24.539  -1.198  55.497  1.00  0.00     0.112 A 
HETATM    2  N1  UNL     1      23.308  -1.490  55.799  1.00  0.00    -0.237 NA
HETATM    3  C2  UNL     1      22.325  -1.128  54.824  1.00  0.00     0.197 A 
HETATM    4  O1  UNL     1      21.025  -1.285  54.832  1.00  0.00    -0.289 OA
HETATM    5  C3  UNL     1      20.469  -0.814  53.740  1.00  0.00     0.090 A 
HETATM    6  C4  UNL     1      19.170  -0.743  53.283  1.00  0.00     0.038 A 
HETATM    7  C5  UNL     1      18.861  -0.176  52.055  1.00  0.00     0.003 A 
HETATM    8  C6  UNL     1      19.927   0.315  51.310  1.00  0.00     0.001 A 
HETATM    9  C7  UNL     1      21.228   0.247  51.761  1.00  0.00     0.017 A 
HETATM   10  C8  UNL     1      21.509  -0.320  52.982  1.00  0.00     0.029 A 
HETATM   11  C9  UNL     1      22.701  -0.507  53.648  1.00  0.00     0.098 A 
HETATM   12  N2  UNL     1      24.031  -0.191  53.324  1.00  0.00    -0.368 N 
HETATM   13  C17 UNL     1      25.073  -0.537  54.278  1.00  0.00     0.170 A 
ENDROOT
BRANCH  12  14
HETATM   14  C10 UNL     1      24.426   0.451  52.111  1.00  0.00     0.162 C 
BRANCH  14  15
HETATM   15  C11 UNL     1      24.127   1.927  52.127  1.00  0.00    -0.040 A 
HETATM   16  C12 UNL     1      24.307   2.733  53.234  1.00  0.00     0.009 A 
HETATM   17  C13 UNL     1      24.016   4.081  53.189  1.00  0.00     0.001 A 
HETATM   18  C14 UNL     1      23.537   4.606  52.006  1.00  0.00     0.000 A 
HETATM   19  C15 UNL     1      23.328   3.874  50.857  1.00  0.00     0.001 A 
HETATM   20  C16 UNL     1      23.639   2.529  50.967  1.00  0.00     0.009 A 
ENDBRANCH  14  15
ENDBRANCH  12  14
TORSDOF 2
ENDMDL
MODEL 9
REMARK VINA RESULT:      -7.1      2.286      4.061
REMARK  2 active torsions:
REMARK  status: ('A' for Active; 'I' for Inactive)
REMARK    1  A    between atoms: N2_12  and  C10_13 
REMARK    2  A    between atoms: C10_13  and  C11_14 
ROOT
HETATM    1  C1  UNL     1      21.435  -0.469  53.805  1.00  0.00     0.112 A 
HETATM    2  N1  UNL     1      20.733  -0.525  52.712  1.00  0.00    -0.237 NA
HETATM    3  C2  UNL     1      21.217   0.263  51.620  1.00  0.00     0.197 A 
HETATM    4  O1  UNL     1      20.742   0.416  50.409  1.00  0.00    -0.289 OA
HETATM    5  C3  UNL     1      21.480   1.233  49.694  1.00  0.00     0.090 A 
HETATM    6  C4  UNL     1      21.406   1.706  48.401  1.00  0.00     0.038 A 
HETATM    7  C5  UNL     1      22.351   2.586  47.893  1.00  0.00     0.003 A 
HETATM    8  C6  UNL     1      23.374   2.966  48.754  1.00  0.00     0.001 A 
HETATM    9  C7  UNL     1      23.454   2.499  50.048  1.00  0.00     0.017 A 
HETATM   10  C8  UNL     1      22.507   1.626  50.528  1.00  0.00     0.029 A 
HETATM   11  C9  UNL     1      22.362   1.023  51.760  1.00  0.00     0.098 A 
HETATM   12  N2  UNL     1      23.119   1.084  52.941  1.00  0.00    -0.368 N 
HETATM   13  C17 UNL     1      22.674   0.301  54.084  1.00  0.00     0.170 A 
ENDROOT
BRANCH  12  14
HETATM   14  C10 UNL     1      24.304   1.867  53.092  1.00  0.00     0.162 C 
BRANCH  14  15
HETATM   15  C11 UNL     1      25.539   1.012  53.198  1.00  0.00    -0.040 A 
HETATM   16  C12 UNL     1      25.950   0.134  52.214  1.00  0.00     0.009 A 
HETATM   17  C13 UNL     1      27.093  -0.624  52.367  1.00  0.00     0.001 A 
HETATM   18  C14 UNL     1      27.817  -0.484  53.533  1.00  0.00     0.000 A 
HETATM   19  C15 UNL     1      27.478   0.366  54.563  1.00  0.00     0.001 A 
HETATM   20  C16 UNL     1      26.322   1.099  54.349  1.00  0.00     0.009 A 
ENDBRANCH  14  15
ENDBRANCH  12  14
TORSDOF 2
ENDMDL
