MODEL 1
REMARK VINA RESULT:      -8.2      0.000      0.000
REMARK  5 active torsions:
REMARK  status: ('A' for Active; 'I' for Inactive)
REMARK    1  A    between atoms: O1_1  and  C1_2 
REMARK    2  A    between atoms: C5_7  and  N1_8 
REMARK    3  A    between atoms: N1_8  and  C6_9 
REMARK    4  A    between atoms: C14_21  and  O3_22 
REMARK    5  A    between atoms: O3_22  and  C15_23 
ROOT
HETATM    1  C1  UNL     1      21.620   2.171  51.346  1.00  0.00     0.168 C 
HETATM    2  C2  UNL     1      22.000   1.587  52.727  1.00  0.00     0.206 C 
HETATM    3  O2  UNL     1      23.376   2.010  53.005  1.00  0.00    -0.364 OA
HETATM    4  C3  UNL     1      23.731   3.143  52.183  1.00  0.00     0.128 A 
HETATM    5  C4  UNL     1      24.754   3.036  51.293  1.00  0.00     0.036 C 
HETATM    6  C5  UNL     1      25.983   2.571  51.915  1.00  0.00     0.137 C 
HETATM    7  N2  UNL     1      26.994   2.792  51.097  1.00  0.00    -0.224 NA
HETATM    8  C12 UNL     1      26.675   3.377  49.809  1.00  0.00     0.229 C 
HETATM    9  N3  UNL     1      25.550   3.721  49.238  1.00  0.00    -0.270 NA
HETATM   10  C13 UNL     1      24.344   3.476  49.968  1.00  0.00     0.178 C 
HETATM   11  C14 UNL     1      23.180   4.335  49.863  1.00  0.00     0.177 C 
HETATM   12  P1  UNL     1      21.958   3.930  51.188  1.00  0.00    -0.048 P 
HETATM   13  C20 UNL     1      22.818   4.299  52.510  1.00  0.00     0.024 A 
HETATM   14  H21 UNL     1      20.807   4.701  51.039  1.00  0.00     0.061 HD
ENDROOT
BRANCH   6  15
HETATM   15  N1  UNL     1      26.012   1.952  53.204  1.00  0.00    -0.341 N 
HETATM   16  H5  UNL     1      25.589   2.385  54.001  1.00  0.00     0.167 HD
BRANCH  15  17
HETATM   17  C6  UNL     1      26.735   0.691  53.115  1.00  0.00     0.035 A 
HETATM   18  C7  UNL     1      25.958  -0.316  52.604  1.00  0.00     0.032 A 
HETATM   19  C8  UNL     1      26.492  -1.584  52.468  1.00  0.00     0.046 A 
HETATM   20  C9  UNL     1      27.794  -1.860  52.837  1.00  0.00     0.138 A 
HETATM   21  F1  UNL     1      28.426  -3.054  52.755  1.00  0.00    -0.204 F 
HETATM   22  C10 UNL     1      28.567  -0.815  53.357  1.00  0.00     0.074 A 
HETATM   23 CL1  UNL     1      30.251  -0.982  53.881  1.00  0.00    -0.081 Cl
HETATM   24  C11 UNL     1      28.046   0.453  53.496  1.00  0.00     0.056 A 
ENDBRANCH  15  17
ENDBRANCH   6  15
BRANCH  11  25
HETATM   25  O3  UNL     1      23.390   5.684  49.920  1.00  0.00    -0.374 OA
BRANCH  25  26
HETATM   26  C15 UNL     1      22.604   6.437  49.083  1.00  0.00     0.126 C 
HETATM   27  C16 UNL     1      22.646   7.925  49.342  1.00  0.00     0.058 C 
HETATM   28  C17 UNL     1      22.324   8.590  48.018  1.00  0.00     0.170 C 
HETATM   29  O4  UNL     1      23.468   8.590  47.220  1.00  0.00    -0.391 OA
HETATM   30  C18 UNL     1      24.146   7.406  47.435  1.00  0.00     0.170 C 
HETATM   31  C19 UNL     1      23.223   6.236  47.687  1.00  0.00     0.058 C 
ENDBRANCH  25  26
ENDBRANCH  11  25
BRANCH   1  32
HETATM   32  O1  UNL     1      22.159   1.401  50.324  1.00  0.00    -0.389 OA
HETATM   33  H1  UNL     1      21.946   0.449  50.478  1.00  0.00     0.210 HD
ENDBRANCH   1  32
TORSDOF 5
ENDMDL
MODEL 2
REMARK VINA RESULT:      -7.8      2.662      5.024
REMARK  5 active torsions:
REMARK  status: ('A' for Active; 'I' for Inactive)
REMARK    1  A    between atoms: O1_1  and  C1_2 
REMARK    2  A    between atoms: C5_7  and  N1_8 
REMARK    3  A    between atoms: N1_8  and  C6_9 
REMARK    4  A    between atoms: C14_21  and  O3_22 
REMARK    5  A    between atoms: O3_22  and  C15_23 
ROOT
HETATM    1  C1  UNL     1      22.691   5.198  51.529  1.00  0.00     0.168 C 
HETATM    2  C2  UNL     1      24.109   5.143  50.914  1.00  0.00     0.206 C 
HETATM    3  O2  UNL     1      24.501   3.731  50.872  1.00  0.00    -0.364 OA
HETATM    4  C3  UNL     1      23.337   2.882  50.968  1.00  0.00     0.128 A 
HETATM    5  C4  UNL     1      23.211   2.026  52.018  1.00  0.00     0.036 C 
HETATM    6  C5  UNL     1      24.370   1.163  52.172  1.00  0.00     0.137 C 
HETATM    7  N2  UNL     1      24.064   0.164  52.977  1.00  0.00    -0.224 NA
HETATM    8  C12 UNL     1      22.728   0.165  53.539  1.00  0.00     0.229 C 
HETATM    9  N3  UNL     1      21.720   0.994  53.445  1.00  0.00    -0.270 NA
HETATM   10  C13 UNL     1      21.916   2.176  52.663  1.00  0.00     0.178 C 
HETATM   11  C14 UNL     1      20.844   2.798  51.908  1.00  0.00     0.177 C 
HETATM   12  P1  UNL     1      21.523   4.071  50.755  1.00  0.00    -0.048 P 
HETATM   13  C20 UNL     1      22.434   3.143  49.788  1.00  0.00     0.024 A 
HETATM   14  H21 UNL     1      20.488   4.723  50.087  1.00  0.00     0.061 HD
ENDROOT
BRANCH   6  15
HETATM   15  N1  UNL     1      25.626   1.433  51.542  1.00  0.00    -0.341 N 
HETATM   16  H5  UNL     1      25.685   1.991  50.712  1.00  0.00     0.167 HD
BRANCH  15  17
HETATM   17  C6  UNL     1      26.688   0.772  52.286  1.00  0.00     0.035 A 
HETATM   18  C7  UNL     1      27.420   1.653  53.039  1.00  0.00     0.032 A 
HETATM   19  C8  UNL     1      28.479   1.186  53.794  1.00  0.00     0.046 A 
HETATM   20  C9  UNL     1      28.818  -0.153  53.808  1.00  0.00     0.138 A 
HETATM   21  F1  UNL     1      29.828  -0.728  54.502  1.00  0.00    -0.204 F 
HETATM   22  C10 UNL     1      28.056  -1.033  53.031  1.00  0.00     0.074 A 
HETATM   23 CL1  UNL     1      28.343  -2.778  52.925  1.00  0.00    -0.081 Cl
HETATM   24  C11 UNL     1      26.998  -0.579  52.274  1.00  0.00     0.056 A 
ENDBRANCH  15  17
ENDBRANCH   6  15
BRANCH  11  25
HETATM   25  O3  UNL     1      20.045   1.978  51.162  1.00  0.00    -0.374 OA
BRANCH  25  26
HETATM   26  C15 UNL     1      18.746   1.871  51.595  1.00  0.00     0.126 C 
HETATM   27  C16 UNL     1      17.737   2.630  50.765  1.00  0.00     0.058 C 
HETATM   28  C17 UNL     1      16.420   1.899  50.935  1.00  0.00     0.170 C 
HETATM   29  O4  UNL     1      16.413   0.776  50.108  1.00  0.00    -0.391 OA
HETATM   30  C18 UNL     1      17.687   0.242  50.093  1.00  0.00     0.170 C 
HETATM   31  C19 UNL     1      18.400   0.381  51.418  1.00  0.00     0.058 C 
ENDBRANCH  25  26
ENDBRANCH  11  25
BRANCH   1  32
HETATM   32  O1  UNL     1      22.753   5.082  52.911  1.00  0.00    -0.389 OA
HETATM   33  H1  UNL     1      22.693   5.978  53.323  1.00  0.00     0.210 HD
ENDBRANCH   1  32
TORSDOF 5
ENDMDL
MODEL 3
REMARK VINA RESULT:      -7.6      2.627      4.431
REMARK  5 active torsions:
REMARK  status: ('A' for Active; 'I' for Inactive)
REMARK    1  A    between atoms: O1_1  and  C1_2 
REMARK    2  A    between atoms: C5_7  and  N1_8 
REMARK    3  A    between atoms: N1_8  and  C6_9 
REMARK    4  A    between atoms: C14_21  and  O3_22 
REMARK    5  A    between atoms: O3_22  and  C15_23 
ROOT
HETATM    1  C1  UNL     1      23.866   6.191  50.907  1.00  0.00     0.168 C 
HETATM    2  C2  UNL     1      25.280   5.822  50.401  1.00  0.00     0.206 C 
HETATM    3  O2  UNL     1      25.351   4.359  50.359  1.00  0.00    -0.364 OA
HETATM    4  C3  UNL     1      24.024   3.790  50.348  1.00  0.00     0.128 A 
HETATM    5  C4  UNL     1      23.628   2.981  51.367  1.00  0.00     0.036 C 
HETATM    6  C5  UNL     1      24.551   1.880  51.591  1.00  0.00     0.137 C 
HETATM    7  N2  UNL     1      23.967   0.972  52.348  1.00  0.00    -0.224 NA
HETATM    8  C12 UNL     1      22.624   1.269  52.806  1.00  0.00     0.229 C 
HETATM    9  N3  UNL     1      21.837   2.302  52.654  1.00  0.00    -0.270 NA
HETATM   10  C13 UNL     1      22.351   3.413  51.914  1.00  0.00     0.178 C 
HETATM   11  C14 UNL     1      21.508   4.262  51.093  1.00  0.00     0.177 C 
HETATM   12  P1  UNL     1      22.541   5.356  50.022  1.00  0.00    -0.048 P 
HETATM   13  C20 UNL     1      23.297   4.251  49.109  1.00  0.00     0.024 A 
HETATM   14  H21 UNL     1      21.734   6.224  49.292  1.00  0.00     0.061 HD
ENDROOT
BRANCH   6  15
HETATM   15  N1  UNL     1      25.881   1.866  51.064  1.00  0.00    -0.341 N 
HETATM   16  H5  UNL     1      26.100   2.294  50.186  1.00  0.00     0.167 HD
BRANCH  15  17
HETATM   17  C6  UNL     1      26.753   1.149  51.983  1.00  0.00     0.035 A 
HETATM   18  C7  UNL     1      27.418   1.995  52.832  1.00  0.00     0.032 A 
HETATM   19  C8  UNL     1      28.300   1.472  53.759  1.00  0.00     0.046 A 
HETATM   20  C9  UNL     1      28.527   0.112  53.850  1.00  0.00     0.138 A 
HETATM   21  F1  UNL     1      29.362  -0.516  54.710  1.00  0.00    -0.204 F 
HETATM   22  C10 UNL     1      27.836  -0.731  52.972  1.00  0.00     0.074 A 
HETATM   23 CL1  UNL     1      28.000  -2.494  52.943  1.00  0.00    -0.081 Cl
HETATM   24  C11 UNL     1      26.954  -0.221  52.044  1.00  0.00     0.056 A 
ENDBRANCH  15  17
ENDBRANCH   6  15
BRANCH  11  25
HETATM   25  O3  UNL     1      20.608   3.643  50.271  1.00  0.00    -0.374 OA
BRANCH  25  26
HETATM   26  C15 UNL     1      19.352   4.199  50.250  1.00  0.00     0.126 C 
HETATM   27  C16 UNL     1      18.477   3.746  49.106  1.00  0.00     0.058 C 
HETATM   28  C17 UNL     1      17.048   3.885  49.591  1.00  0.00     0.170 C 
HETATM   29  O4  UNL     1      16.734   2.793  50.401  1.00  0.00    -0.391 OA
HETATM   30  C18 UNL     1      17.855   2.467  51.138  1.00  0.00     0.170 C 
HETATM   31  C19 UNL     1      18.675   3.673  51.530  1.00  0.00     0.058 C 
ENDBRANCH  25  26
ENDBRANCH  11  25
BRANCH   1  32
HETATM   32  O1  UNL     1      23.790   6.058  52.287  1.00  0.00    -0.389 OA
HETATM   33  H1  UNL     1      23.268   6.807  52.665  1.00  0.00     0.210 HD
ENDBRANCH   1  32
TORSDOF 5
ENDMDL
MODEL 4
REMARK VINA RESULT:      -7.6      3.876      6.845
REMARK  5 active torsions:
REMARK  status: ('A' for Active; 'I' for Inactive)
REMARK    1  A    between atoms: O1_1  and  C1_2 
REMARK    2  A    between atoms: C5_7  and  N1_8 
REMARK    3  A    between atoms: N1_8  and  C6_9 
REMARK    4  A    between atoms: C14_21  and  O3_22 
REMARK    5  A    between atoms: O3_22  and  C15_23 
ROOT
HETATM    1  C1  UNL     1      23.319   7.305  51.020  1.00  0.00     0.168 C 
HETATM    2  C2  UNL     1      23.941   8.282  49.995  1.00  0.00     0.206 C 
HETATM    3  O2  UNL     1      24.795   7.486  49.110  1.00  0.00    -0.364 OA
HETATM    4  C3  UNL     1      24.432   6.090  49.180  1.00  0.00     0.128 A 
HETATM    5  C4  UNL     1      25.340   5.178  49.619  1.00  0.00     0.036 C 
HETATM    6  C5  UNL     1      26.593   5.246  48.885  1.00  0.00     0.137 C 
HETATM    7  N2  UNL     1      27.296   4.156  49.124  1.00  0.00    -0.224 NA
HETATM    8  C12 UNL     1      26.722   3.199  50.051  1.00  0.00     0.229 C 
HETATM    9  N3  UNL     1      25.623   3.192  50.760  1.00  0.00    -0.270 NA
HETATM   10  C13 UNL     1      24.779   4.343  50.670  1.00  0.00     0.178 C 
HETATM   11  C14 UNL     1      23.334   4.263  50.779  1.00  0.00     0.177 C 
HETATM   12  P1  UNL     1      22.558   5.859  50.269  1.00  0.00    -0.048 P 
HETATM   13  C20 UNL     1      23.007   5.925  48.714  1.00  0.00     0.024 A 
HETATM   14  H21 UNL     1      21.177   5.807  50.449  1.00  0.00     0.061 HD
ENDROOT
BRANCH   6  15
HETATM   15  N1  UNL     1      26.954   6.366  48.071  1.00  0.00    -0.341 N 
HETATM   16  H5  UNL     1      26.299   6.787  47.442  1.00  0.00     0.167 HD
BRANCH  15  17
HETATM   17  C6  UNL     1      28.346   6.711  48.321  1.00  0.00     0.035 A 
HETATM   18  C7  UNL     1      28.493   8.014  48.720  1.00  0.00     0.032 A 
HETATM   19  C8  UNL     1      29.757   8.506  48.983  1.00  0.00     0.046 A 
HETATM   20  C9  UNL     1      30.880   7.713  48.852  1.00  0.00     0.138 A 
HETATM   21  F1  UNL     1      32.163   8.078  49.078  1.00  0.00    -0.204 F 
HETATM   22  C10 UNL     1      30.705   6.386  48.442  1.00  0.00     0.074 A 
HETATM   23 CL1  UNL     1      32.024   5.225  48.221  1.00  0.00    -0.081 Cl
HETATM   24  C11 UNL     1      29.449   5.884  48.178  1.00  0.00     0.056 A 
ENDBRANCH  15  17
ENDBRANCH   6  15
BRANCH  11  25
HETATM   25  O3  UNL     1      22.706   3.276  50.071  1.00  0.00    -0.374 OA
BRANCH  25  26
HETATM   26  C15 UNL     1      21.701   2.621  50.740  1.00  0.00     0.126 C 
HETATM   27  C16 UNL     1      21.319   1.281  50.157  1.00  0.00     0.058 C 
HETATM   28  C17 UNL     1      20.762   0.467  51.308  1.00  0.00     0.170 C 
HETATM   29  O4  UNL     1      21.821  -0.043  52.059  1.00  0.00    -0.391 OA
HETATM   30  C18 UNL     1      22.822   0.908  52.095  1.00  0.00     0.170 C 
HETATM   31  C19 UNL     1      22.291   2.322  52.131  1.00  0.00     0.058 C 
ENDBRANCH  25  26
ENDBRANCH  11  25
BRANCH   1  32
HETATM   32  O1  UNL     1      24.231   7.003  52.023  1.00  0.00    -0.389 OA
HETATM   33  H1  UNL     1      24.529   6.066  51.930  1.00  0.00     0.210 HD
ENDBRANCH   1  32
TORSDOF 5
ENDMDL
MODEL 5
REMARK VINA RESULT:      -7.6      2.548      3.294
REMARK  5 active torsions:
REMARK  status: ('A' for Active; 'I' for Inactive)
REMARK    1  A    between atoms: O1_1  and  C1_2 
REMARK    2  A    between atoms: C5_7  and  N1_8 
REMARK    3  A    between atoms: N1_8  and  C6_9 
REMARK    4  A    between atoms: C14_21  and  O3_22 
REMARK    5  A    between atoms: O3_22  and  C15_23 
ROOT
HETATM    1  C1  UNL     1      20.939   0.633  51.870  1.00  0.00     0.168 C 
HETATM    2  C2  UNL     1      21.614   0.592  53.261  1.00  0.00     0.206 C 
HETATM    3  O2  UNL     1      22.681   1.597  53.247  1.00  0.00    -0.364 OA
HETATM    4  C3  UNL     1      22.459   2.553  52.188  1.00  0.00     0.128 A 
HETATM    5  C4  UNL     1      23.374   2.677  51.189  1.00  0.00     0.036 C 
HETATM    6  C5  UNL     1      24.716   2.918  51.693  1.00  0.00     0.137 C 
HETATM    7  N2  UNL     1      25.481   3.342  50.706  1.00  0.00    -0.224 NA
HETATM    8  C12 UNL     1      24.866   3.431  49.395  1.00  0.00     0.229 C 
HETATM    9  N3  UNL     1      23.672   3.138  48.947  1.00  0.00    -0.270 NA
HETATM   10  C13 UNL     1      22.738   2.591  49.883  1.00  0.00     0.178 C 
HETATM   11  C14 UNL     1      21.312   2.843  49.800  1.00  0.00     0.177 C 
HETATM   12  P1  UNL     1      20.466   2.286  51.344  1.00  0.00    -0.048 P 
HETATM   13  C20 UNL     1      21.155   3.270  52.432  1.00  0.00     0.024 A 
HETATM   14  H21 UNL     1      19.088   2.456  51.233  1.00  0.00     0.061 HD
ENDROOT
BRANCH   6  15
HETATM   15  N1  UNL     1      25.086   2.680  53.054  1.00  0.00    -0.341 N 
HETATM   16  H5  UNL     1      24.661   3.186  53.807  1.00  0.00     0.167 HD
BRANCH  15  17
HETATM   17  C6  UNL     1      26.123   1.660  53.099  1.00  0.00     0.035 A 
HETATM   18  C7  UNL     1      27.315   2.152  53.564  1.00  0.00     0.032 A 
HETATM   19  C8  UNL     1      28.408   1.312  53.653  1.00  0.00     0.046 A 
HETATM   20  C9  UNL     1      28.328  -0.017  53.283  1.00  0.00     0.138 A 
HETATM   21  F1  UNL     1      29.324  -0.933  53.322  1.00  0.00    -0.204 F 
HETATM   22  C10 UNL     1      27.101  -0.496  52.810  1.00  0.00     0.074 A 
HETATM   23 CL1  UNL     1      26.812  -2.164  52.291  1.00  0.00    -0.081 Cl
HETATM   24  C11 UNL     1      26.003   0.332  52.717  1.00  0.00     0.056 A 
ENDBRANCH  15  17
ENDBRANCH   6  15
BRANCH  11  25
HETATM   25  O3  UNL     1      20.916   4.133  49.577  1.00  0.00    -0.374 OA
BRANCH  25  26
HETATM   26  C15 UNL     1      20.332   4.366  48.355  1.00  0.00     0.126 C 
HETATM   27  C16 UNL     1      20.094   3.129  47.521  1.00  0.00     0.058 C 
HETATM   28  C17 UNL     1      18.920   3.453  46.618  1.00  0.00     0.170 C 
HETATM   29  O4  UNL     1      17.737   3.318  47.345  1.00  0.00    -0.391 OA
HETATM   30  C18 UNL     1      17.969   3.761  48.633  1.00  0.00     0.170 C 
HETATM   31  C19 UNL     1      18.936   4.920  48.693  1.00  0.00     0.058 C 
ENDBRANCH  25  26
ENDBRANCH  11  25
BRANCH   1  32
HETATM   32  O1  UNL     1      21.700  -0.058  50.937  1.00  0.00    -0.389 OA
HETATM   33  H1  UNL     1      21.129  -0.331  50.179  1.00  0.00     0.210 HD
ENDBRANCH   1  32
TORSDOF 5
ENDMDL
MODEL 6
REMARK VINA RESULT:      -7.4      1.503      1.897
REMARK  5 active torsions:
REMARK  status: ('A' for Active; 'I' for Inactive)
REMARK    1  A    between atoms: O1_1  and  C1_2 
REMARK    2  A    between atoms: C5_7  and  N1_8 
REMARK    3  A    between atoms: N1_8  and  C6_9 
REMARK    4  A    between atoms: C14_21  and  O3_22 
REMARK    5  A    between atoms: O3_22  and  C15_23 
ROOT
HETATM    1  C1  UNL     1      21.449   2.126  48.582  1.00  0.00     0.168 C 
HETATM    2  C2  UNL     1      21.350   0.963  49.597  1.00  0.00     0.206 C 
HETATM    3  O2  UNL     1      22.405   1.174  50.592  1.00  0.00    -0.364 OA
HETATM    4  C3  UNL     1      22.850   2.547  50.571  1.00  0.00     0.128 A 
HETATM    5  C4  UNL     1      24.143   2.833  50.258  1.00  0.00     0.036 C 
HETATM    6  C5  UNL     1      25.088   2.101  51.086  1.00  0.00     0.137 C 
HETATM    7  N2  UNL     1      26.284   2.645  50.966  1.00  0.00    -0.224 NA
HETATM    8  C12 UNL     1      26.402   3.764  50.051  1.00  0.00     0.229 C 
HETATM    9  N3  UNL     1      25.552   4.362  49.257  1.00  0.00    -0.270 NA
HETATM   10  C13 UNL     1      24.220   3.842  49.214  1.00  0.00     0.178 C 
HETATM   11  C14 UNL     1      23.059   4.685  48.993  1.00  0.00     0.177 C 
HETATM   12  P1  UNL     1      21.506   3.752  49.348  1.00  0.00    -0.048 P 
HETATM   13  C20 UNL     1      21.695   3.449  50.928  1.00  0.00     0.024 A 
HETATM   14  H21 UNL     1      20.391   4.535  49.060  1.00  0.00     0.061 HD
ENDROOT
BRANCH   6  15
HETATM   15  N1  UNL     1      24.715   0.959  51.863  1.00  0.00    -0.341 N 
HETATM   16  H5  UNL     1      23.805   0.547  51.782  1.00  0.00     0.167 HD
BRANCH  15  17
HETATM   17  C6  UNL     1      25.827   0.577  52.720  1.00  0.00     0.035 A 
HETATM   18  C7  UNL     1      25.903   1.353  53.847  1.00  0.00     0.032 A 
HETATM   19  C8  UNL     1      26.916   1.128  54.760  1.00  0.00     0.046 A 
HETATM   20  C9  UNL     1      27.857   0.136  54.562  1.00  0.00     0.138 A 
HETATM   21  F1  UNL     1      28.891  -0.177  55.377  1.00  0.00    -0.204 F 
HETATM   22  C10 UNL     1      27.759  -0.642  53.403  1.00  0.00     0.074 A 
HETATM   23 CL1  UNL     1      28.873  -1.954  52.983  1.00  0.00    -0.081 Cl
HETATM   24  C11 UNL     1      26.753  -0.428  52.485  1.00  0.00     0.056 A 
ENDBRANCH  15  17
ENDBRANCH   6  15
BRANCH  11  25
HETATM   25  O3  UNL     1      22.989   5.852  49.701  1.00  0.00    -0.374 OA
BRANCH  25  26
HETATM   26  C15 UNL     1      22.538   6.941  48.997  1.00  0.00     0.126 C 
HETATM   27  C16 UNL     1      22.803   8.275  49.654  1.00  0.00     0.058 C 
HETATM   28  C17 UNL     1      22.879   9.289  48.529  1.00  0.00     0.170 C 
HETATM   29  O4  UNL     1      24.138   9.213  47.935  1.00  0.00    -0.391 OA
HETATM   30  C18 UNL     1      24.528   7.888  47.914  1.00  0.00     0.170 C 
HETATM   31  C19 UNL     1      23.373   6.938  47.703  1.00  0.00     0.058 C 
ENDBRANCH  25  26
ENDBRANCH  11  25
BRANCH   1  32
HETATM   32  O1  UNL     1      22.474   1.896  47.674  1.00  0.00    -0.389 OA
HETATM   33  H1  UNL     1      23.322   1.751  48.160  1.00  0.00     0.210 HD
ENDBRANCH   1  32
TORSDOF 5
ENDMDL
MODEL 7
REMARK VINA RESULT:      -7.4      4.402      7.608
REMARK  5 active torsions:
REMARK  status: ('A' for Active; 'I' for Inactive)
REMARK    1  A    between atoms: O1_1  and  C1_2 
REMARK    2  A    between atoms: C5_7  and  N1_8 
REMARK    3  A    between atoms: N1_8  and  C6_9 
REMARK    4  A    between atoms: C14_21  and  O3_22 
REMARK    5  A    between atoms: O3_22  and  C15_23 
ROOT
HETATM    1  C1  UNL     1      23.425   3.447  49.901  1.00  0.00     0.168 C 
HETATM    2  C2  UNL     1      22.012   3.993  50.214  1.00  0.00     0.206 C 
HETATM    3  O2  UNL     1      21.576   3.357  51.460  1.00  0.00    -0.364 OA
HETATM    4  C3  UNL     1      22.711   2.835  52.185  1.00  0.00     0.128 A 
HETATM    5  C4  UNL     1      22.799   1.500  52.428  1.00  0.00     0.036 C 
HETATM    6  C5  UNL     1      21.611   0.976  53.082  1.00  0.00     0.137 C 
HETATM    7  N2  UNL     1      21.876  -0.218  53.575  1.00  0.00    -0.224 NA
HETATM    8  C12 UNL     1      23.207  -0.742  53.333  1.00  0.00     0.229 C 
HETATM    9  N3  UNL     1      24.241  -0.284  52.676  1.00  0.00    -0.270 NA
HETATM   10  C13 UNL     1      24.092   0.976  52.016  1.00  0.00     0.178 C 
HETATM   11  C14 UNL     1      25.190   1.912  51.861  1.00  0.00     0.177 C 
HETATM   12  P1  UNL     1      24.565   3.552  51.289  1.00  0.00    -0.048 P 
HETATM   13  C20 UNL     1      23.634   3.972  52.547  1.00  0.00     0.024 A 
HETATM   14  H21 UNL     1      25.626   4.426  51.065  1.00  0.00     0.061 HD
ENDROOT
BRANCH   6  15
HETATM   15  N1  UNL     1      20.371   1.689  53.121  1.00  0.00    -0.341 N 
HETATM   16  H5  UNL     1      20.298   2.588  53.557  1.00  0.00     0.167 HD
BRANCH  15  17
HETATM   17  C6  UNL     1      19.340   0.894  52.471  1.00  0.00     0.035 A 
HETATM   18  C7  UNL     1      18.993   1.398  51.244  1.00  0.00     0.032 A 
HETATM   19  C8  UNL     1      18.014   0.766  50.501  1.00  0.00     0.046 A 
HETATM   20  C9  UNL     1      17.374  -0.366  50.968  1.00  0.00     0.138 A 
HETATM   21  F1  UNL     1      16.404  -1.069  50.338  1.00  0.00    -0.204 F 
HETATM   22  C10 UNL     1      17.745  -0.862  52.224  1.00  0.00     0.074 A 
HETATM   23 CL1  UNL     1      17.036  -2.298  52.980  1.00  0.00    -0.081 Cl
HETATM   24  C11 UNL     1      18.720  -0.241  52.973  1.00  0.00     0.056 A 
ENDBRANCH  15  17
ENDBRANCH   6  15
BRANCH  11  25
HETATM   25  O3  UNL     1      25.970   2.149  52.958  1.00  0.00    -0.374 OA
BRANCH  25  26
HETATM   26  C15 UNL     1      27.290   1.790  52.830  1.00  0.00     0.126 C 
HETATM   27  C16 UNL     1      28.224   2.444  53.821  1.00  0.00     0.058 C 
HETATM   28  C17 UNL     1      29.393   1.493  53.984  1.00  0.00     0.170 C 
HETATM   29  O4  UNL     1      29.024   0.465  54.852  1.00  0.00    -0.391 OA
HETATM   30  C18 UNL     1      27.700   0.152  54.613  1.00  0.00     0.170 C 
HETATM   31  C19 UNL     1      27.316   0.285  53.158  1.00  0.00     0.058 C 
ENDBRANCH  25  26
ENDBRANCH  11  25
BRANCH   1  32
HETATM   32  O1  UNL     1      23.346   2.182  49.334  1.00  0.00    -0.389 OA
HETATM   33  H1  UNL     1      22.629   1.665  49.774  1.00  0.00     0.210 HD
ENDBRANCH   1  32
TORSDOF 5
ENDMDL
MODEL 8
REMARK VINA RESULT:      -7.4      3.383      4.376
REMARK  5 active torsions:
REMARK  status: ('A' for Active; 'I' for Inactive)
REMARK    1  A    between atoms: O1_1  and  C1_2 
REMARK    2  A    between atoms: C5_7  and  N1_8 
REMARK    3  A    between atoms: N1_8  and  C6_9 
REMARK    4  A    between atoms: C14_21  and  O3_22 
REMARK    5  A    between atoms: O3_22  and  C15_23 
ROOT
HETATM    1  C1  UNL     1      22.172   6.163  49.658  1.00  0.00     0.168 C 
HETATM    2  C2  UNL     1      21.647   5.817  51.071  1.00  0.00     0.206 C 
HETATM    3  O2  UNL     1      22.759   5.202  51.800  1.00  0.00    -0.364 OA
HETATM    4  C3  UNL     1      24.017   5.530  51.172  1.00  0.00     0.128 A 
HETATM    5  C4  UNL     1      24.799   4.537  50.669  1.00  0.00     0.036 C 
HETATM    6  C5  UNL     1      25.081   3.503  51.651  1.00  0.00     0.137 C 
HETATM    7  N2  UNL     1      26.080   2.756  51.221  1.00  0.00    -0.224 NA
HETATM    8  C12 UNL     1      26.622   3.081  49.916  1.00  0.00     0.229 C 
HETATM    9  N3  UNL     1      26.304   3.972  49.013  1.00  0.00    -0.270 NA
HETATM   10  C13 UNL     1      25.186   4.819  49.295  1.00  0.00     0.178 C 
HETATM   11  C14 UNL     1      25.109   6.192  48.833  1.00  0.00     0.177 C 
HETATM   12  P1  UNL     1      23.720   7.078  49.666  1.00  0.00    -0.048 P 
HETATM   13  C20 UNL     1      24.215   7.025  51.208  1.00  0.00     0.024 A 
HETATM   14  H21 UNL     1      23.598   8.371  49.164  1.00  0.00     0.061 HD
ENDROOT
BRANCH   6  15
HETATM   15  N1  UNL     1      24.331   3.358  52.861  1.00  0.00    -0.341 N 
HETATM   16  H5  UNL     1      24.309   4.083  53.551  1.00  0.00     0.167 HD
BRANCH  15  17
HETATM   17  C6  UNL     1      23.688   2.053  52.874  1.00  0.00     0.035 A 
HETATM   18  C7  UNL     1      24.445   1.107  53.515  1.00  0.00     0.032 A 
HETATM   19  C8  UNL     1      23.982  -0.191  53.601  1.00  0.00     0.046 A 
HETATM   20  C9  UNL     1      22.768  -0.561  53.054  1.00  0.00     0.138 A 
HETATM   21  F1  UNL     1      22.211  -1.794  53.072  1.00  0.00    -0.204 F 
HETATM   22  C10 UNL     1      22.013   0.422  52.403  1.00  0.00     0.074 A 
HETATM   23 CL1  UNL     1      20.439   0.133  51.644  1.00  0.00    -0.081 Cl
HETATM   24  C11 UNL     1      22.465   1.721  52.311  1.00  0.00     0.056 A 
ENDBRANCH  15  17
ENDBRANCH   6  15
BRANCH  11  25
HETATM   25  O3  UNL     1      26.223   6.968  48.991  1.00  0.00    -0.374 OA
BRANCH  25  26
HETATM   26  C15 UNL     1      26.842   7.352  47.826  1.00  0.00     0.126 C 
HETATM   27  C16 UNL     1      26.982   8.846  47.646  1.00  0.00     0.058 C 
HETATM   28  C17 UNL     1      28.194   9.048  46.756  1.00  0.00     0.170 C 
HETATM   29  O4  UNL     1      29.349   8.927  47.528  1.00  0.00    -0.391 OA
HETATM   30  C18 UNL     1      29.139   7.937  48.468  1.00  0.00     0.170 C 
HETATM   31  C19 UNL     1      28.277   6.808  47.953  1.00  0.00     0.058 C 
ENDBRANCH  25  26
ENDBRANCH  11  25
BRANCH   1  32
HETATM   32  O1  UNL     1      22.191   5.032  48.853  1.00  0.00    -0.389 OA
HETATM   33  H1  UNL     1      22.795   5.181  48.085  1.00  0.00     0.210 HD
ENDBRANCH   1  32
TORSDOF 5
ENDMDL
MODEL 9
REMARK VINA RESULT:      -7.3      6.556      8.464
REMARK  5 active torsions:
REMARK  status: ('A' for Active; 'I' for Inactive)
REMARK    1  A    between atoms: O1_1  and  C1_2 
REMARK    2  A    between atoms: C5_7  and  N1_8 
REMARK    3  A    between atoms: N1_8  and  C6_9 
REMARK    4  A    between atoms: C14_21  and  O3_22 
REMARK    5  A    between atoms: O3_22  and  C15_23 
ROOT
HETATM    1  C1  UNL     1      29.015  10.372  49.267  1.00  0.00     0.168 C 
HETATM    2  C2  UNL     1      30.559  10.440  49.200  1.00  0.00     0.206 C 
HETATM    3  O2  UNL     1      31.014   9.195  48.575  1.00  0.00    -0.364 OA
HETATM    4  C3  UNL     1      29.933   8.571  47.848  1.00  0.00     0.128 A 
HETATM    5  C4  UNL     1      29.500   7.335  48.213  1.00  0.00     0.036 C 
HETATM    6  C5  UNL     1      30.580   6.363  48.268  1.00  0.00     0.137 C 
HETATM    7  N2  UNL     1      30.069   5.147  48.307  1.00  0.00    -0.224 NA
HETATM    8  C12 UNL     1      28.622   5.048  48.329  1.00  0.00     0.229 C 
HETATM    9  N3  UNL     1      27.666   5.940  48.354  1.00  0.00    -0.270 NA
HETATM   10  C13 UNL     1      28.056   7.316  48.391  1.00  0.00     0.178 C 
HETATM   11  C14 UNL     1      27.277   8.366  47.760  1.00  0.00     0.177 C 
HETATM   12  P1  UNL     1      28.242   9.939  47.701  1.00  0.00    -0.048 P 
HETATM   13  C20 UNL     1      29.475   9.497  46.749  1.00  0.00     0.024 A 
HETATM   14  H21 UNL     1      27.466  10.966  47.168  1.00  0.00     0.061 HD
ENDROOT
BRANCH   6  15
HETATM   15  N1  UNL     1      31.960   6.740  48.303  1.00  0.00    -0.341 N 
HETATM   16  H5  UNL     1      32.273   7.526  48.839  1.00  0.00     0.167 HD
BRANCH  15  17
HETATM   17  C6  UNL     1      32.726   5.833  47.461  1.00  0.00     0.035 A 
HETATM   18  C7  UNL     1      33.638   5.105  48.180  1.00  0.00     0.032 A 
HETATM   19  C8  UNL     1      34.458   4.206  47.524  1.00  0.00     0.046 A 
HETATM   20  C9  UNL     1      34.380   4.025  46.157  1.00  0.00     0.138 A 
HETATM   21  F1  UNL     1      35.126   3.182  45.406  1.00  0.00    -0.204 F 
HETATM   22  C10 UNL     1      33.442   4.781  45.445  1.00  0.00     0.074 A 
HETATM   23 CL1  UNL     1      33.200   4.682  43.693  1.00  0.00    -0.081 Cl
HETATM   24  C11 UNL     1      32.618   5.679  46.087  1.00  0.00     0.056 A 
ENDBRANCH  15  17
ENDBRANCH   6  15
BRANCH  11  25
HETATM   25  O3  UNL     1      26.825   8.134  46.492  1.00  0.00    -0.374 OA
BRANCH  25  26
HETATM   26  C15 UNL     1      25.680   8.809  46.143  1.00  0.00     0.126 C 
HETATM   27  C16 UNL     1      25.027   8.331  44.867  1.00  0.00     0.058 C 
HETATM   28  C17 UNL     1      23.554   8.663  45.002  1.00  0.00     0.170 C 
HETATM   29  O4  UNL     1      22.942   7.697  45.801  1.00  0.00    -0.391 OA
HETATM   30  C18 UNL     1      23.827   7.336  46.797  1.00  0.00     0.170 C 
HETATM   31  C19 UNL     1      24.683   8.487  47.272  1.00  0.00     0.058 C 
ENDBRANCH  25  26
ENDBRANCH  11  25
BRANCH   1  32
HETATM   32  O1  UNL     1      28.606   9.582  50.333  1.00  0.00    -0.389 OA
HETATM   33  H1  UNL     1      28.683  10.094  51.174  1.00  0.00     0.210 HD
ENDBRANCH   1  32
TORSDOF 5
ENDMDL
