MODEL 1
REMARK VINA RESULT:      -7.9      0.000      0.000
REMARK  5 active torsions:
REMARK  status: ('A' for Active; 'I' for Inactive)
REMARK    1  A    between atoms: C2_2  and  C3_3 
REMARK    2  A    between atoms: C3_3  and  C17_22 
REMARK    3  A    between atoms: C4_4  and  C5_5 
REMARK    4  A    between atoms: C13_16  and  C14_17 
REMARK    5  A    between atoms: C14_17  and  O1_18 
ROOT
HETATM    1  C5  UNL     1      25.356   2.526  50.805  1.00  0.00     0.036 A 
HETATM    2  C6  UNL     1      23.972   2.616  50.745  1.00  0.00     0.043 A 
HETATM    3  C7  UNL     1      23.508   1.735  51.696  1.00  0.00     0.014 A 
HETATM    4  C8  UNL     1      24.592   1.106  52.334  1.00  0.00     0.134 A 
HETATM    5  N1  UNL     1      25.678   1.633  51.745  1.00  0.00    -0.336 N 
HETATM    6  C9  UNL     1      26.950   1.133  52.266  1.00  0.00     0.158 C 
HETATM    7  N2  UNL     1      24.227   0.188  53.320  1.00  0.00    -0.248 N 
HETATM    8  C10 UNL     1      24.922  -0.462  54.141  1.00  0.00     0.202 A 
HETATM    9  N3  UNL     1      23.509  -0.591  54.107  1.00  0.00    -0.158 NA
HETATM   10  C11 UNL     1      22.925  -1.285  55.034  1.00  0.00     0.093 C 
HETATM   11  C12 UNL     1      21.556  -1.078  54.513  1.00  0.00     0.048 C 
HETATM   12  C13 UNL     1      21.072  -0.404  53.450  1.00  0.00     0.071 C 
HETATM   13  O2  UNL     1      22.067   0.189  52.743  1.00  0.00    -0.349 OA
HETATM   14  C16 UNL     1      22.093   1.409  52.073  1.00  0.00     0.218 C 
ENDROOT
BRANCH   1  15
HETATM   15  C4  UNL     1      26.318   3.266  50.022  1.00  0.00     0.038 C 
HETATM   16  C3  UNL     1      26.449   4.453  49.400  1.00  0.00    -0.015 C 
BRANCH  16  17
HETATM   17  C2  UNL     1      27.729   4.770  48.671  1.00  0.00     0.035 C 
HETATM   18  C1  UNL     1      27.860   6.206  48.294  1.00  0.00     0.010 C 
ENDBRANCH  16  17
BRANCH  16  19
HETATM   19  C17 UNL     1      25.613   5.663  49.233  1.00  0.00     0.382 C 
HETATM   20  F1  UNL     1      24.433   5.461  48.573  1.00  0.00    -0.209 F 
HETATM   21  F2  UNL     1      25.261   6.191  50.468  1.00  0.00    -0.209 F 
ENDBRANCH  16  19
ENDBRANCH   1  15
BRANCH  12  22
HETATM   22  C14 UNL     1      19.640  -0.274  53.032  1.00  0.00     0.231 C 
BRANCH  22  23
HETATM   23  O1  UNL     1      18.831  -1.275  53.511  1.00  0.00    -0.390 OA
HETATM   24  C15 UNL     1      17.519  -1.179  53.093  1.00  0.00     0.201 C 
ENDBRANCH  22  23
ENDBRANCH  12  22
TORSDOF 5
ENDMDL
MODEL 2
REMARK VINA RESULT:      -7.8      3.376      5.196
REMARK  5 active torsions:
REMARK  status: ('A' for Active; 'I' for Inactive)
REMARK    1  A    between atoms: C2_2  and  C3_3 
REMARK    2  A    between atoms: C3_3  and  C17_22 
REMARK    3  A    between atoms: C4_4  and  C5_5 
REMARK    4  A    between atoms: C13_16  and  C14_17 
REMARK    5  A    between atoms: C14_17  and  O1_18 
ROOT
HETATM    1  C5  UNL     1      24.085  -0.104  53.767  1.00  0.00     0.036 A 
HETATM    2  C6  UNL     1      23.078  -0.880  54.324  1.00  0.00     0.043 A 
HETATM    3  C7  UNL     1      21.970  -0.661  53.537  1.00  0.00     0.014 A 
HETATM    4  C8  UNL     1      22.288   0.241  52.506  1.00  0.00     0.134 A 
HETATM    5  N1  UNL     1      23.583   0.535  52.706  1.00  0.00    -0.336 N 
HETATM    6  C9  UNL     1      24.150   1.462  51.727  1.00  0.00     0.158 C 
HETATM    7  N2  UNL     1      21.227   0.531  51.646  1.00  0.00    -0.248 N 
HETATM    8  C10 UNL     1      21.184   1.200  50.583  1.00  0.00     0.202 A 
HETATM    9  N3  UNL     1      20.022   0.580  51.109  1.00  0.00    -0.158 NA
HETATM   10  C11 UNL     1      18.936   0.591  50.401  1.00  0.00     0.093 C 
HETATM   11  C12 UNL     1      18.123  -0.149  51.392  1.00  0.00     0.048 C 
HETATM   12  C13 UNL     1      18.403  -0.662  52.608  1.00  0.00     0.071 C 
HETATM   13  O2  UNL     1      19.695  -0.436  52.955  1.00  0.00    -0.349 OA
HETATM   14  C16 UNL     1      20.589  -1.233  53.666  1.00  0.00     0.218 C 
ENDROOT
BRANCH   1  15
HETATM   15  C4  UNL     1      25.455   0.006  54.209  1.00  0.00     0.038 C 
HETATM   16  C3  UNL     1      26.696  -0.351  53.825  1.00  0.00    -0.015 C 
BRANCH  16  17
HETATM   17  C2  UNL     1      27.873   0.019  54.688  1.00  0.00     0.035 C 
HETATM   18  C1  UNL     1      29.191  -0.295  54.065  1.00  0.00     0.010 C 
ENDBRANCH  16  17
BRANCH  16  19
HETATM   19  C17 UNL     1      27.288  -1.060  52.668  1.00  0.00     0.382 C 
HETATM   20  F1  UNL     1      27.022  -2.399  52.616  1.00  0.00    -0.209 F 
HETATM   21  F2  UNL     1      26.803  -0.540  51.475  1.00  0.00    -0.209 F 
ENDBRANCH  16  19
ENDBRANCH   1  15
BRANCH  12  22
HETATM   22  C14 UNL     1      17.472  -1.399  53.518  1.00  0.00     0.231 C 
BRANCH  22  23
HETATM   23  O1  UNL     1      16.857  -2.476  52.928  1.00  0.00    -0.390 OA
HETATM   24  C15 UNL     1      17.113  -3.678  53.558  1.00  0.00     0.201 C 
ENDBRANCH  22  23
ENDBRANCH  12  22
TORSDOF 5
ENDMDL
MODEL 3
REMARK VINA RESULT:      -7.7      2.813      4.528
REMARK  5 active torsions:
REMARK  status: ('A' for Active; 'I' for Inactive)
REMARK    1  A    between atoms: C2_2  and  C3_3 
REMARK    2  A    between atoms: C3_3  and  C17_22 
REMARK    3  A    between atoms: C4_4  and  C5_5 
REMARK    4  A    between atoms: C13_16  and  C14_17 
REMARK    5  A    between atoms: C14_17  and  O1_18 
ROOT
HETATM    1  C5  UNL     1      26.245   0.096  52.913  1.00  0.00     0.036 A 
HETATM    2  C6  UNL     1      25.237  -0.695  53.448  1.00  0.00     0.043 A 
HETATM    3  C7  UNL     1      24.067  -0.212  52.904  1.00  0.00     0.014 A 
HETATM    4  C8  UNL     1      24.350   0.864  52.044  1.00  0.00     0.134 A 
HETATM    5  N1  UNL     1      25.685   0.994  52.098  1.00  0.00    -0.336 N 
HETATM    6  C9  UNL     1      26.222   2.062  51.255  1.00  0.00     0.158 C 
HETATM    7  N2  UNL     1      23.225   1.428  51.438  1.00  0.00    -0.248 N 
HETATM    8  C10 UNL     1      23.120   2.316  50.555  1.00  0.00     0.202 A 
HETATM    9  N3  UNL     1      21.974   1.698  51.117  1.00  0.00    -0.158 NA
HETATM   10  C11 UNL     1      20.812   1.958  50.603  1.00  0.00     0.093 C 
HETATM   11  C12 UNL     1      20.057   1.091  51.534  1.00  0.00     0.048 C 
HETATM   12  C13 UNL     1      20.434   0.300  52.559  1.00  0.00     0.071 C 
HETATM   13  O2  UNL     1      21.778   0.331  52.742  1.00  0.00    -0.349 OA
HETATM   14  C16 UNL     1      22.658  -0.678  53.125  1.00  0.00     0.218 C 
ENDROOT
BRANCH   1  15
HETATM   15  C4  UNL     1      27.665  -0.014  53.150  1.00  0.00     0.038 C 
HETATM   16  C3  UNL     1      28.723   0.761  53.457  1.00  0.00    -0.015 C 
BRANCH  16  17
HETATM   17  C2  UNL     1      30.084   0.132  53.600  1.00  0.00     0.035 C 
HETATM   18  C1  UNL     1      30.042  -1.350  53.758  1.00  0.00     0.010 C 
ENDBRANCH  16  17
BRANCH  16  19
HETATM   19  C17 UNL     1      28.943   2.197  53.741  1.00  0.00     0.382 C 
HETATM   20  F1  UNL     1      27.811   2.906  54.031  1.00  0.00    -0.209 F 
HETATM   21  F2  UNL     1      29.772   2.358  54.844  1.00  0.00    -0.209 F 
ENDBRANCH  16  19
ENDBRANCH   1  15
BRANCH  12  22
HETATM   22  C14 UNL     1      19.551  -0.537  53.432  1.00  0.00     0.231 C 
BRANCH  22  23
HETATM   23  O1  UNL     1      18.389  -0.939  52.821  1.00  0.00    -0.390 OA
HETATM   24  C15 UNL     1      17.753  -1.983  53.463  1.00  0.00     0.201 C 
ENDBRANCH  22  23
ENDBRANCH  12  22
TORSDOF 5
ENDMDL
MODEL 4
REMARK VINA RESULT:      -7.6      3.314      4.735
REMARK  5 active torsions:
REMARK  status: ('A' for Active; 'I' for Inactive)
REMARK    1  A    between atoms: C2_2  and  C3_3 
REMARK    2  A    between atoms: C3_3  and  C17_22 
REMARK    3  A    between atoms: C4_4  and  C5_5 
REMARK    4  A    between atoms: C13_16  and  C14_17 
REMARK    5  A    between atoms: C14_17  and  O1_18 
ROOT
HETATM    1  C5  UNL     1      26.068   0.250  53.032  1.00  0.00     0.036 A 
HETATM    2  C6  UNL     1      25.508   1.008  52.013  1.00  0.00     0.043 A 
HETATM    3  C7  UNL     1      24.146   0.915  52.194  1.00  0.00     0.014 A 
HETATM    4  C8  UNL     1      23.868   0.107  53.311  1.00  0.00     0.134 A 
HETATM    5  N1  UNL     1      25.076  -0.260  53.768  1.00  0.00    -0.336 N 
HETATM    6  C9  UNL     1      25.040  -1.108  54.958  1.00  0.00     0.158 C 
HETATM    7  N2  UNL     1      22.508  -0.053  53.582  1.00  0.00    -0.248 N 
HETATM    8  C10 UNL     1      21.917  -0.610  54.541  1.00  0.00     0.202 A 
HETATM    9  N3  UNL     1      21.193   0.002  53.486  1.00  0.00    -0.158 NA
HETATM   10  C11 UNL     1      19.905   0.107  53.594  1.00  0.00     0.093 C 
HETATM   11  C12 UNL     1      19.716   0.779  52.289  1.00  0.00     0.048 C 
HETATM   12  C13 UNL     1      20.574   1.157  51.319  1.00  0.00     0.071 C 
HETATM   13  O2  UNL     1      21.855   0.844  51.641  1.00  0.00    -0.349 OA
HETATM   14  C16 UNL     1      23.040   1.529  51.388  1.00  0.00     0.218 C 
ENDROOT
BRANCH   1  15
HETATM   15  C4  UNL     1      27.471   0.040  53.300  1.00  0.00     0.038 C 
HETATM   16  C3  UNL     1      28.589   0.744  53.562  1.00  0.00    -0.015 C 
BRANCH  16  17
HETATM   17  C2  UNL     1      29.890   0.015  53.777  1.00  0.00     0.035 C 
HETATM   18  C1  UNL     1      29.811  -1.444  53.480  1.00  0.00     0.010 C 
ENDBRANCH  16  17
BRANCH  16  19
HETATM   19  C17 UNL     1      28.928   2.174  53.734  1.00  0.00     0.382 C 
HETATM   20  F1  UNL     1      27.862   2.993  53.982  1.00  0.00    -0.209 F 
HETATM   21  F2  UNL     1      29.787   2.348  54.813  1.00  0.00    -0.209 F 
ENDBRANCH  16  19
ENDBRANCH   1  15
BRANCH  12  22
HETATM   22  C14 UNL     1      20.243   1.838  50.029  1.00  0.00     0.231 C 
BRANCH  22  23
HETATM   23  O1  UNL     1      20.650   1.144  48.916  1.00  0.00    -0.390 OA
HETATM   24  C15 UNL     1      21.573   1.820  48.144  1.00  0.00     0.201 C 
ENDBRANCH  22  23
ENDBRANCH  12  22
TORSDOF 5
ENDMDL
MODEL 5
REMARK VINA RESULT:      -7.6      2.803      4.550
REMARK  5 active torsions:
REMARK  status: ('A' for Active; 'I' for Inactive)
REMARK    1  A    between atoms: C2_2  and  C3_3 
REMARK    2  A    between atoms: C3_3  and  C17_22 
REMARK    3  A    between atoms: C4_4  and  C5_5 
REMARK    4  A    between atoms: C13_16  and  C14_17 
REMARK    5  A    between atoms: C14_17  and  O1_18 
ROOT
HETATM    1  C5  UNL     1      25.864   4.602  49.737  1.00  0.00     0.036 A 
HETATM    2  C6  UNL     1      26.722   3.574  50.106  1.00  0.00     0.043 A 
HETATM    3  C7  UNL     1      25.963   2.727  50.883  1.00  0.00     0.014 A 
HETATM    4  C8  UNL     1      24.653   3.226  50.994  1.00  0.00     0.134 A 
HETATM    5  N1  UNL     1      24.666   4.361  50.276  1.00  0.00    -0.336 N 
HETATM    6  C9  UNL     1      23.383   5.062  50.231  1.00  0.00     0.158 C 
HETATM    7  N2  UNL     1      23.799   2.437  51.766  1.00  0.00    -0.248 N 
HETATM    8  C10 UNL     1      22.565   2.526  51.986  1.00  0.00     0.202 A 
HETATM    9  N3  UNL     1      23.342   1.488  52.562  1.00  0.00    -0.158 NA
HETATM   10  C11 UNL     1      22.735   0.542  53.207  1.00  0.00     0.093 C 
HETATM   11  C12 UNL     1      23.969  -0.196  53.554  1.00  0.00     0.048 C 
HETATM   12  C13 UNL     1      25.274   0.026  53.294  1.00  0.00     0.071 C 
HETATM   13  O2  UNL     1      25.448   1.159  52.567  1.00  0.00    -0.349 OA
HETATM   14  C16 UNL     1      26.365   1.450  51.560  1.00  0.00     0.218 C 
ENDROOT
BRANCH   1  15
HETATM   15  C4  UNL     1      26.166   5.738  48.900  1.00  0.00     0.038 C 
HETATM   16  C3  UNL     1      27.219   6.334  48.307  1.00  0.00    -0.015 C 
BRANCH  16  17
HETATM   17  C2  UNL     1      27.001   7.580  47.489  1.00  0.00     0.035 C 
HETATM   18  C1  UNL     1      25.576   8.015  47.435  1.00  0.00     0.010 C 
ENDBRANCH  16  17
BRANCH  16  19
HETATM   19  C17 UNL     1      28.672   6.070  48.208  1.00  0.00     0.382 C 
HETATM   20  F1  UNL     1      29.007   4.759  48.010  1.00  0.00    -0.209 F 
HETATM   21  F2  UNL     1      29.223   6.759  47.135  1.00  0.00    -0.209 F 
ENDBRANCH  16  19
ENDBRANCH   1  15
BRANCH  12  22
HETATM   22  C14 UNL     1      26.439  -0.815  53.712  1.00  0.00     0.231 C 
BRANCH  22  23
HETATM   23  O1  UNL     1      27.029  -0.402  54.882  1.00  0.00    -0.390 OA
HETATM   24  C15 UNL     1      28.315   0.073  54.720  1.00  0.00     0.201 C 
ENDBRANCH  22  23
ENDBRANCH  12  22
TORSDOF 5
ENDMDL
MODEL 6
REMARK VINA RESULT:      -7.4      3.701      4.705
REMARK  5 active torsions:
REMARK  status: ('A' for Active; 'I' for Inactive)
REMARK    1  A    between atoms: C2_2  and  C3_3 
REMARK    2  A    between atoms: C3_3  and  C17_22 
REMARK    3  A    between atoms: C4_4  and  C5_5 
REMARK    4  A    between atoms: C13_16  and  C14_17 
REMARK    5  A    between atoms: C14_17  and  O1_18 
ROOT
HETATM    1  C5  UNL     1      25.175   0.840  53.093  1.00  0.00     0.036 A 
HETATM    2  C6  UNL     1      24.435   1.503  52.123  1.00  0.00     0.043 A 
HETATM    3  C7  UNL     1      23.146   1.042  52.268  1.00  0.00     0.014 A 
HETATM    4  C8  UNL     1      23.090   0.104  53.315  1.00  0.00     0.134 A 
HETATM    5  N1  UNL     1      24.351   0.032  53.768  1.00  0.00    -0.336 N 
HETATM    6  C9  UNL     1      24.539  -0.887  54.890  1.00  0.00     0.158 C 
HETATM    7  N2  UNL     1      21.819  -0.427  53.545  1.00  0.00    -0.248 N 
HETATM    8  C10 UNL     1      21.395  -1.194  54.446  1.00  0.00     0.202 A 
HETATM    9  N3  UNL     1      20.536  -0.711  53.426  1.00  0.00    -0.158 NA
HETATM   10  C11 UNL     1      19.266  -0.956  53.514  1.00  0.00     0.093 C 
HETATM   11  C12 UNL     1      18.907  -0.258  52.261  1.00  0.00     0.048 C 
HETATM   12  C13 UNL     1      19.636   0.407  51.341  1.00  0.00     0.071 C 
HETATM   13  O2  UNL     1      20.953   0.416  51.665  1.00  0.00    -0.349 OA
HETATM   14  C16 UNL     1      21.917   1.406  51.488  1.00  0.00     0.218 C 
ENDROOT
BRANCH   1  15
HETATM   15  C4  UNL     1      26.583   0.984  53.374  1.00  0.00     0.038 C 
HETATM   16  C3  UNL     1      27.700   0.237  53.465  1.00  0.00    -0.015 C 
BRANCH  16  17
HETATM   17  C2  UNL     1      29.008   0.899  53.811  1.00  0.00     0.035 C 
HETATM   18  C1  UNL     1      28.938   2.389  53.818  1.00  0.00     0.010 C 
ENDBRANCH  16  17
BRANCH  16  19
HETATM   19  C17 UNL     1      28.041  -1.192  53.282  1.00  0.00     0.382 C 
HETATM   20  F1  UNL     1      27.273  -1.854  52.365  1.00  0.00    -0.209 F 
HETATM   21  F2  UNL     1      29.350  -1.331  52.839  1.00  0.00    -0.209 F 
ENDBRANCH  16  19
ENDBRANCH   1  15
BRANCH  12  22
HETATM   22  C14 UNL     1      19.137   1.077  50.098  1.00  0.00     0.231 C 
BRANCH  22  23
HETATM   23  O1  UNL     1      18.070   1.914  50.311  1.00  0.00    -0.390 OA
HETATM   24  C15 UNL     1      18.424   3.156  50.799  1.00  0.00     0.201 C 
ENDBRANCH  22  23
ENDBRANCH  12  22
TORSDOF 5
ENDMDL
MODEL 7
REMARK VINA RESULT:      -7.3      3.978      7.722
REMARK  5 active torsions:
REMARK  status: ('A' for Active; 'I' for Inactive)
REMARK    1  A    between atoms: C2_2  and  C3_3 
REMARK    2  A    between atoms: C3_3  and  C17_22 
REMARK    3  A    between atoms: C4_4  and  C5_5 
REMARK    4  A    between atoms: C13_16  and  C14_17 
REMARK    5  A    between atoms: C14_17  and  O1_18 
ROOT
HETATM    1  C5  UNL     1      20.892   0.288  52.048  1.00  0.00     0.036 A 
HETATM    2  C6  UNL     1      21.735  -0.483  52.837  1.00  0.00     0.043 A 
HETATM    3  C7  UNL     1      22.990   0.054  52.662  1.00  0.00     0.014 A 
HETATM    4  C8  UNL     1      22.924   1.143  51.774  1.00  0.00     0.134 A 
HETATM    5  N1  UNL     1      21.626   1.227  51.444  1.00  0.00    -0.336 N 
HETATM    6  C9  UNL     1      21.305   2.318  50.525  1.00  0.00     0.158 C 
HETATM    7  N2  UNL     1      24.152   1.761  51.528  1.00  0.00    -0.248 N 
HETATM    8  C10 UNL     1      24.438   2.801  50.883  1.00  0.00     0.202 A 
HETATM    9  N3  UNL     1      25.444   2.029  51.520  1.00  0.00    -0.158 NA
HETATM   10  C11 UNL     1      26.655   2.490  51.551  1.00  0.00     0.093 C 
HETATM   11  C12 UNL     1      27.218   1.338  52.289  1.00  0.00     0.048 C 
HETATM   12  C13 UNL     1      26.672   0.202  52.770  1.00  0.00     0.071 C 
HETATM   13  O2  UNL     1      25.342   0.141  52.505  1.00  0.00    -0.349 OA
HETATM   14  C16 UNL     1      24.296  -0.375  53.265  1.00  0.00     0.218 C 
ENDROOT
BRANCH   1  15
HETATM   15  C4  UNL     1      19.463   0.150  51.896  1.00  0.00     0.038 C 
HETATM   16  C3  UNL     1      18.431  -0.546  52.413  1.00  0.00    -0.015 C 
BRANCH  16  17
HETATM   17  C2  UNL     1      17.042  -0.318  51.877  1.00  0.00     0.035 C 
HETATM   18  C1  UNL     1      16.981  -0.255  50.389  1.00  0.00     0.010 C 
ENDBRANCH  16  17
BRANCH  16  19
HETATM   19  C17 UNL     1      18.260  -1.557  53.480  1.00  0.00     0.382 C 
HETATM   20  F1  UNL     1      17.577  -2.680  53.104  1.00  0.00    -0.209 F 
HETATM   21  F2  UNL     1      19.494  -2.008  53.931  1.00  0.00    -0.209 F 
ENDBRANCH  16  19
ENDBRANCH   1  15
BRANCH  12  22
HETATM   22  C14 UNL     1      27.367  -0.898  53.510  1.00  0.00     0.231 C 
BRANCH  22  23
HETATM   23  O1  UNL     1      28.423  -0.468  54.276  1.00  0.00    -0.390 OA
HETATM   24  C15 UNL     1      29.654  -0.884  53.812  1.00  0.00     0.201 C 
ENDBRANCH  22  23
ENDBRANCH  12  22
TORSDOF 5
ENDMDL
MODEL 8
REMARK VINA RESULT:      -7.2      3.592      4.807
REMARK  5 active torsions:
REMARK  status: ('A' for Active; 'I' for Inactive)
REMARK    1  A    between atoms: C2_2  and  C3_3 
REMARK    2  A    between atoms: C3_3  and  C17_22 
REMARK    3  A    between atoms: C4_4  and  C5_5 
REMARK    4  A    between atoms: C13_16  and  C14_17 
REMARK    5  A    between atoms: C14_17  and  O1_18 
ROOT
HETATM    1  C5  UNL     1      24.540   1.307  53.084  1.00  0.00     0.036 A 
HETATM    2  C6  UNL     1      23.726   0.199  52.894  1.00  0.00     0.043 A 
HETATM    3  C7  UNL     1      22.495   0.707  52.540  1.00  0.00     0.014 A 
HETATM    4  C8  UNL     1      22.549   2.111  52.512  1.00  0.00     0.134 A 
HETATM    5  N1  UNL     1      23.814   2.405  52.851  1.00  0.00    -0.336 N 
HETATM    6  C9  UNL     1      24.118   3.835  52.874  1.00  0.00     0.158 C 
HETATM    7  N2  UNL     1      21.345   2.727  52.162  1.00  0.00    -0.248 N 
HETATM    8  C10 UNL     1      21.068   3.933  51.944  1.00  0.00     0.202 A 
HETATM    9  N3  UNL     1      20.078   2.922  51.851  1.00  0.00    -0.158 NA
HETATM   10  C11 UNL     1      18.906   3.238  51.396  1.00  0.00     0.093 C 
HETATM   11  C12 UNL     1      18.341   1.876  51.522  1.00  0.00     0.048 C 
HETATM   12  C13 UNL     1      18.856   0.707  51.955  1.00  0.00     0.071 C 
HETATM   13  O2  UNL     1      20.149   0.847  52.342  1.00  0.00    -0.349 OA
HETATM   14  C16 UNL     1      21.226  -0.026  52.218  1.00  0.00     0.218 C 
ENDROOT
BRANCH   1  15
HETATM   15  C4  UNL     1      25.937   1.318  53.446  1.00  0.00     0.038 C 
HETATM   16  C3  UNL     1      27.009   0.501  53.452  1.00  0.00    -0.015 C 
BRANCH  16  17
HETATM   17  C2  UNL     1      28.328   1.015  53.966  1.00  0.00     0.035 C 
HETATM   18  C1  UNL     1      28.621   2.419  53.556  1.00  0.00     0.010 C 
ENDBRANCH  16  17
BRANCH  16  19
HETATM   19  C17 UNL     1      27.286  -0.891  53.034  1.00  0.00     0.382 C 
HETATM   20  F1  UNL     1      26.658  -1.284  51.885  1.00  0.00    -0.209 F 
HETATM   21  F2  UNL     1      28.643  -1.070  52.794  1.00  0.00    -0.209 F 
ENDBRANCH  16  19
ENDBRANCH   1  15
BRANCH  12  22
HETATM   22  C14 UNL     1      18.163  -0.618  52.031  1.00  0.00     0.231 C 
BRANCH  22  23
HETATM   23  O1  UNL     1      17.882  -1.023  53.313  1.00  0.00    -0.390 OA
HETATM   24  C15 UNL     1      17.642  -2.377  53.429  1.00  0.00     0.201 C 
ENDBRANCH  22  23
ENDBRANCH  12  22
TORSDOF 5
ENDMDL
MODEL 9
REMARK VINA RESULT:      -6.8      3.285      5.360
REMARK  5 active torsions:
REMARK  status: ('A' for Active; 'I' for Inactive)
REMARK    1  A    between atoms: C2_2  and  C3_3 
REMARK    2  A    between atoms: C3_3  and  C17_22 
REMARK    3  A    between atoms: C4_4  and  C5_5 
REMARK    4  A    between atoms: C13_16  and  C14_17 
REMARK    5  A    between atoms: C14_17  and  O1_18 
ROOT
HETATM    1  C5  UNL     1      24.056   3.301  49.994  1.00  0.00     0.036 A 
HETATM    2  C6  UNL     1      25.413   3.220  50.276  1.00  0.00     0.043 A 
HETATM    3  C7  UNL     1      25.518   2.318  51.312  1.00  0.00     0.014 A 
HETATM    4  C8  UNL     1      24.241   1.848  51.666  1.00  0.00     0.134 A 
HETATM    5  N1  UNL     1      23.406   2.484  50.828  1.00  0.00    -0.336 N 
HETATM    6  C9  UNL     1      21.996   2.136  51.000  1.00  0.00     0.158 C 
HETATM    7  N2  UNL     1      24.237   0.923  52.712  1.00  0.00    -0.248 N 
HETATM    8  C10 UNL     1      23.306   0.237  53.204  1.00  0.00     0.202 A 
HETATM    9  N3  UNL     1      24.630   0.149  53.706  1.00  0.00    -0.158 NA
HETATM   10  C11 UNL     1      24.901  -0.759  54.591  1.00  0.00     0.093 C 
HETATM   11  C12 UNL     1      26.327  -0.392  54.726  1.00  0.00     0.048 C 
HETATM   12  C13 UNL     1      27.091   0.552  54.138  1.00  0.00     0.071 C 
HETATM   13  O2  UNL     1      26.374   1.290  53.254  1.00  0.00    -0.349 OA
HETATM   14  C16 UNL     1      26.745   1.841  52.030  1.00  0.00     0.218 C 
ENDROOT
BRANCH   1  15
HETATM   15  C4  UNL     1      23.418   4.097  48.973  1.00  0.00     0.038 C 
HETATM   16  C3  UNL     1      22.680   3.946  47.856  1.00  0.00    -0.015 C 
BRANCH  16  17
HETATM   17  C2  UNL     1      22.233   5.166  47.094  1.00  0.00     0.035 C 
HETATM   18  C1  UNL     1      21.875   6.318  47.970  1.00  0.00     0.010 C 
ENDBRANCH  16  17
BRANCH  16  19
HETATM   19  C17 UNL     1      22.111   2.804  47.104  1.00  0.00     0.382 C 
HETATM   20  F1  UNL     1      22.320   1.580  47.674  1.00  0.00    -0.209 F 
HETATM   21  F2  UNL     1      20.733   2.930  46.991  1.00  0.00    -0.209 F 
ENDBRANCH  16  19
ENDBRANCH   1  15
BRANCH  12  22
HETATM   22  C14 UNL     1      28.545   0.818  54.371  1.00  0.00     0.231 C 
BRANCH  22  23
HETATM   23  O1  UNL     1      29.293  -0.318  54.562  1.00  0.00    -0.390 OA
HETATM   24  C15 UNL     1      29.850  -0.820  53.403  1.00  0.00     0.201 C 
ENDBRANCH  22  23
ENDBRANCH  12  22
TORSDOF 5
ENDMDL
