MODEL 1
REMARK VINA RESULT:      -7.6      0.000      0.000
REMARK  4 active torsions:
REMARK  status: ('A' for Active; 'I' for Inactive)
REMARK    1  A    between atoms: C7_7  and  O1_8 
REMARK    2  A    between atoms: O1_8  and  C8_9 
REMARK    3  A    between atoms: C8_9  and  C9_10 
REMARK    4  A    between atoms: C9_10  and  N1_11 
ROOT
HETATM    1  C1  UNL     1      27.164   0.206  52.198  1.00  0.00    -0.004 A 
HETATM    2  C2  UNL     1      26.330   1.133  51.799  1.00  0.00    -0.022 A 
HETATM    3  C3  UNL     1      24.887   1.332  52.082  1.00  0.00     0.066 A 
HETATM    4  C4  UNL     1      24.407   0.261  52.964  1.00  0.00    -0.048 A 
HETATM    5  C5  UNL     1      23.134   0.275  53.324  1.00  0.00    -0.045 A 
HETATM    6  C6  UNL     1      22.288   1.354  52.824  1.00  0.00     0.044 A 
HETATM    7  C7  UNL     1      20.997   1.407  53.165  1.00  0.00     0.069 A 
HETATM    8  C15 UNL     1      20.428   0.371  54.047  1.00  0.00     0.033 A 
HETATM    9  C16 UNL     1      21.197  -0.625  54.511  1.00  0.00    -0.019 A 
HETATM   10  C17 UNL     1      22.642  -0.806  54.215  1.00  0.00     0.066 A 
HETATM   11  C18 UNL     1      25.321  -0.783  53.419  1.00  0.00     0.008 A 
HETATM   12  C19 UNL     1      26.599  -0.817  53.070  1.00  0.00     0.000 A 
ENDROOT
BRANCH   7  13
HETATM   13  O1  UNL     1      20.070   2.340  52.789  1.00  0.00    -0.350 OA
BRANCH  13  14
HETATM   14  C8  UNL     1      20.492   3.563  52.207  1.00  0.00     0.195 C 
BRANCH  14  15
HETATM   15  C9  UNL     1      19.810   3.684  50.865  1.00  0.00     0.143 C 
BRANCH  15  16
HETATM   16  N1  UNL     1      20.565   3.131  49.791  1.00  0.00    -0.410 N 
HETATM   17  C10 UNL     1      21.939   3.450  49.947  1.00  0.00     0.117 C 
HETATM   18  C11 UNL     1      22.864   2.922  48.909  1.00  0.00     0.019 C 
HETATM   19  C12 UNL     1      22.270   1.852  48.043  1.00  0.00     0.003 C 
HETATM   20  C13 UNL     1      21.433   0.980  48.967  1.00  0.00     0.019 C 
HETATM   21  C14 UNL     1      20.246   1.812  49.386  1.00  0.00     0.117 C 
ENDBRANCH  15  16
ENDBRANCH  14  15
ENDBRANCH  13  14
ENDBRANCH   7  13
TORSDOF 4
ENDMDL
MODEL 2
REMARK VINA RESULT:      -7.6      2.525      3.306
REMARK  4 active torsions:
REMARK  status: ('A' for Active; 'I' for Inactive)
REMARK    1  A    between atoms: C7_7  and  O1_8 
REMARK    2  A    between atoms: O1_8  and  C8_9 
REMARK    3  A    between atoms: C8_9  and  C9_10 
REMARK    4  A    between atoms: C9_10  and  N1_11 
ROOT
HETATM    1  C1  UNL     1      29.187   1.236  54.239  1.00  0.00    -0.004 A 
HETATM    2  C2  UNL     1      28.488   2.202  53.699  1.00  0.00    -0.022 A 
HETATM    3  C3  UNL     1      27.048   2.283  53.349  1.00  0.00     0.066 A 
HETATM    4  C4  UNL     1      26.384   1.023  53.704  1.00  0.00    -0.048 A 
HETATM    5  C5  UNL     1      25.088   0.912  53.461  1.00  0.00    -0.045 A 
HETATM    6  C6  UNL     1      24.400   2.049  52.857  1.00  0.00     0.044 A 
HETATM    7  C7  UNL     1      23.092   1.980  52.596  1.00  0.00     0.069 A 
HETATM    8  C15 UNL     1      22.343   0.751  52.919  1.00  0.00     0.033 A 
HETATM    9  C16 UNL     1      22.966  -0.299  53.474  1.00  0.00    -0.019 A 
HETATM   10  C17 UNL     1      24.410  -0.360  53.818  1.00  0.00     0.066 A 
HETATM   11  C18 UNL     1      27.147  -0.067  54.306  1.00  0.00     0.008 A 
HETATM   12  C19 UNL     1      28.445   0.022  54.558  1.00  0.00     0.000 A 
ENDROOT
BRANCH   7  13
HETATM   13  O1  UNL     1      22.298   2.944  52.036  1.00  0.00    -0.350 OA
BRANCH  13  14
HETATM   14  C8  UNL     1      22.865   4.177  51.627  1.00  0.00     0.195 C 
BRANCH  14  15
HETATM   15  C9  UNL     1      22.879   4.189  50.117  1.00  0.00     0.143 C 
BRANCH  15  16
HETATM   16  N1  UNL     1      24.167   4.439  49.561  1.00  0.00    -0.410 N 
HETATM   17  C10 UNL     1      24.669   5.680  50.033  1.00  0.00     0.117 C 
HETATM   18  C11 UNL     1      26.022   6.072  49.555  1.00  0.00     0.019 C 
HETATM   19  C12 UNL     1      26.799   4.956  48.924  1.00  0.00     0.003 C 
HETATM   20  C13 UNL     1      26.512   3.719  49.761  1.00  0.00     0.019 C 
HETATM   21  C14 UNL     1      25.071   3.350  49.508  1.00  0.00     0.117 C 
ENDBRANCH  15  16
ENDBRANCH  14  15
ENDBRANCH  13  14
ENDBRANCH   7  13
TORSDOF 4
ENDMDL
MODEL 3
REMARK VINA RESULT:      -7.5      2.420      4.721
REMARK  4 active torsions:
REMARK  status: ('A' for Active; 'I' for Inactive)
REMARK    1  A    between atoms: C7_7  and  O1_8 
REMARK    2  A    between atoms: O1_8  and  C8_9 
REMARK    3  A    between atoms: C8_9  and  C9_10 
REMARK    4  A    between atoms: C9_10  and  N1_11 
ROOT
HETATM    1  C1  UNL     1      21.466  -1.014  54.058  1.00  0.00    -0.004 A 
HETATM    2  C2  UNL     1      21.774  -0.183  53.094  1.00  0.00    -0.022 A 
HETATM    3  C3  UNL     1      23.061   0.466  52.743  1.00  0.00     0.066 A 
HETATM    4  C4  UNL     1      24.099   0.044  53.691  1.00  0.00    -0.048 A 
HETATM    5  C5  UNL     1      25.321   0.527  53.532  1.00  0.00    -0.045 A 
HETATM    6  C6  UNL     1      25.560   1.447  52.424  1.00  0.00     0.044 A 
HETATM    7  C7  UNL     1      26.779   1.957  52.227  1.00  0.00     0.069 A 
HETATM    8  C15 UNL     1      27.884   1.589  53.133  1.00  0.00     0.033 A 
HETATM    9  C16 UNL     1      27.675   0.745  54.153  1.00  0.00    -0.019 A 
HETATM   10  C17 UNL     1      26.376   0.105  54.488  1.00  0.00     0.066 A 
HETATM   11  C18 UNL     1      23.775  -0.881  54.773  1.00  0.00     0.008 A 
HETATM   12  C19 UNL     1      22.560  -1.377  54.952  1.00  0.00     0.000 A 
ENDROOT
BRANCH   7  13
HETATM   13  O1  UNL     1      27.174   2.827  51.247  1.00  0.00    -0.350 OA
BRANCH  13  14
HETATM   14  C8  UNL     1      26.411   2.944  50.057  1.00  0.00     0.195 C 
BRANCH  14  15
HETATM   15  C9  UNL     1      25.771   4.313  50.065  1.00  0.00     0.143 C 
BRANCH  15  16
HETATM   16  N1  UNL     1      24.363   4.281  50.278  1.00  0.00    -0.410 N 
HETATM   17  C10 UNL     1      23.821   3.071  49.770  1.00  0.00     0.117 C 
HETATM   18  C11 UNL     1      22.356   2.880  49.939  1.00  0.00     0.019 C 
HETATM   19  C12 UNL     1      21.720   3.825  50.915  1.00  0.00     0.003 C 
HETATM   20  C13 UNL     1      22.703   3.962  52.067  1.00  0.00     0.019 C 
HETATM   21  C14 UNL     1      23.888   4.729  51.535  1.00  0.00     0.117 C 
ENDBRANCH  15  16
ENDBRANCH  14  15
ENDBRANCH  13  14
ENDBRANCH   7  13
TORSDOF 4
ENDMDL
MODEL 4
REMARK VINA RESULT:      -7.3      3.481      6.749
REMARK  4 active torsions:
REMARK  status: ('A' for Active; 'I' for Inactive)
REMARK    1  A    between atoms: C7_7  and  O1_8 
REMARK    2  A    between atoms: O1_8  and  C8_9 
REMARK    3  A    between atoms: C8_9  and  C9_10 
REMARK    4  A    between atoms: C9_10  and  N1_11 
ROOT
HETATM    1  C1  UNL     1      27.303   5.696  48.395  1.00  0.00    -0.004 A 
HETATM    2  C2  UNL     1      27.483   4.488  48.866  1.00  0.00    -0.022 A 
HETATM    3  C3  UNL     1      26.628   3.646  49.739  1.00  0.00     0.066 A 
HETATM    4  C4  UNL     1      25.401   4.378  50.077  1.00  0.00    -0.048 A 
HETATM    5  C5  UNL     1      24.513   3.779  50.855  1.00  0.00    -0.045 A 
HETATM    6  C6  UNL     1      24.810   2.430  51.327  1.00  0.00     0.044 A 
HETATM    7  C7  UNL     1      23.941   1.788  52.114  1.00  0.00     0.069 A 
HETATM    8  C15 UNL     1      22.681   2.448  52.506  1.00  0.00     0.033 A 
HETATM    9  C16 UNL     1      22.399   3.687  52.078  1.00  0.00    -0.019 A 
HETATM   10  C17 UNL     1      23.270   4.513  51.202  1.00  0.00     0.066 A 
HETATM   11  C18 UNL     1      25.182   5.727  49.562  1.00  0.00     0.008 A 
HETATM   12  C19 UNL     1      26.057   6.346  48.783  1.00  0.00     0.000 A 
ENDROOT
BRANCH   7  13
HETATM   13  O1  UNL     1      24.060   0.532  52.642  1.00  0.00    -0.350 OA
BRANCH  13  14
HETATM   14  C8  UNL     1      25.322  -0.115  52.651  1.00  0.00     0.195 C 
BRANCH  14  15
HETATM   15  C9  UNL     1      25.896   0.033  54.040  1.00  0.00     0.143 C 
BRANCH  15  16
HETATM   16  N1  UNL     1      27.283  -0.285  54.120  1.00  0.00    -0.410 N 
HETATM   17  C10 UNL     1      27.609  -1.281  53.163  1.00  0.00     0.117 C 
HETATM   18  C11 UNL     1      29.034  -1.706  53.109  1.00  0.00     0.019 C 
HETATM   19  C12 UNL     1      29.977  -0.788  53.828  1.00  0.00     0.003 C 
HETATM   20  C13 UNL     1      29.494   0.624  53.535  1.00  0.00     0.019 C 
HETATM   21  C14 UNL     1      28.187   0.794  54.270  1.00  0.00     0.117 C 
ENDBRANCH  15  16
ENDBRANCH  14  15
ENDBRANCH  13  14
ENDBRANCH   7  13
TORSDOF 4
ENDMDL
MODEL 5
REMARK VINA RESULT:      -7.3      2.950      6.413
REMARK  4 active torsions:
REMARK  status: ('A' for Active; 'I' for Inactive)
REMARK    1  A    between atoms: C7_7  and  O1_8 
REMARK    2  A    between atoms: O1_8  and  C8_9 
REMARK    3  A    between atoms: C8_9  and  C9_10 
REMARK    4  A    between atoms: C9_10  and  N1_11 
ROOT
HETATM    1  C1  UNL     1      16.735  -0.488  51.612  1.00  0.00    -0.004 A 
HETATM    2  C2  UNL     1      17.683   0.163  50.986  1.00  0.00    -0.022 A 
HETATM    3  C3  UNL     1      19.127   0.312  51.292  1.00  0.00     0.066 A 
HETATM    4  C4  UNL     1      19.449  -0.429  52.518  1.00  0.00    -0.048 A 
HETATM    5  C5  UNL     1      20.700  -0.409  52.948  1.00  0.00    -0.045 A 
HETATM    6  C6  UNL     1      21.682   0.347  52.176  1.00  0.00     0.044 A 
HETATM    7  C7  UNL     1      22.957   0.393  52.574  1.00  0.00     0.069 A 
HETATM    8  C15 UNL     1      23.370  -0.322  53.797  1.00  0.00     0.033 A 
HETATM    9  C16 UNL     1      22.476  -1.019  54.513  1.00  0.00    -0.019 A 
HETATM   10  C17 UNL     1      21.032  -1.155  54.188  1.00  0.00     0.066 A 
HETATM   11  C18 UNL     1      18.405  -1.160  53.231  1.00  0.00     0.008 A 
HETATM   12  C19 UNL     1      17.146  -1.194  52.820  1.00  0.00     0.000 A 
ENDROOT
BRANCH   7  13
HETATM   13  O1  UNL     1      23.997   1.048  51.974  1.00  0.00    -0.350 OA
BRANCH  13  14
HETATM   14  C8  UNL     1      24.843   1.886  52.745  1.00  0.00     0.195 C 
BRANCH  14  15
HETATM   15  C9  UNL     1      26.108   2.106  51.948  1.00  0.00     0.143 C 
BRANCH  15  16
HETATM   16  N1  UNL     1      27.183   1.258  52.342  1.00  0.00    -0.410 N 
HETATM   17  C10 UNL     1      27.770   1.741  53.540  1.00  0.00     0.117 C 
HETATM   18  C11 UNL     1      28.899   0.945  54.092  1.00  0.00     0.019 C 
HETATM   19  C12 UNL     1      29.032  -0.426  53.500  1.00  0.00     0.003 C 
HETATM   20  C13 UNL     1      27.615  -0.952  53.336  1.00  0.00     0.019 C 
HETATM   21  C14 UNL     1      26.978  -0.139  52.235  1.00  0.00     0.117 C 
ENDBRANCH  15  16
ENDBRANCH  14  15
ENDBRANCH  13  14
ENDBRANCH   7  13
TORSDOF 4
ENDMDL
MODEL 6
REMARK VINA RESULT:      -7.1      2.159      4.281
REMARK  4 active torsions:
REMARK  status: ('A' for Active; 'I' for Inactive)
REMARK    1  A    between atoms: C7_7  and  O1_8 
REMARK    2  A    between atoms: O1_8  and  C8_9 
REMARK    3  A    between atoms: C8_9  and  C9_10 
REMARK    4  A    between atoms: C9_10  and  N1_11 
ROOT
HETATM    1  C1  UNL     1      25.474   5.323  49.116  1.00  0.00    -0.004 A 
HETATM    2  C2  UNL     1      24.433   4.945  49.814  1.00  0.00    -0.022 A 
HETATM    3  C3  UNL     1      24.234   3.780  50.712  1.00  0.00     0.066 A 
HETATM    4  C4  UNL     1      25.465   2.980  50.759  1.00  0.00    -0.048 A 
HETATM    5  C5  UNL     1      25.473   1.894  51.515  1.00  0.00    -0.045 A 
HETATM    6  C6  UNL     1      24.259   1.561  52.254  1.00  0.00     0.044 A 
HETATM    7  C7  UNL     1      24.224   0.473  53.030  1.00  0.00     0.069 A 
HETATM    8  C15 UNL     1      25.415  -0.391  53.136  1.00  0.00     0.033 A 
HETATM    9  C16 UNL     1      26.534  -0.093  52.461  1.00  0.00    -0.019 A 
HETATM   10  C17 UNL     1      26.713   1.080  51.566  1.00  0.00     0.066 A 
HETATM   11  C18 UNL     1      26.636   3.385  49.986  1.00  0.00     0.008 A 
HETATM   12  C19 UNL     1      26.650   4.468  49.223  1.00  0.00     0.000 A 
ENDROOT
BRANCH   7  13
HETATM   13  O1  UNL     1      23.178   0.017  53.785  1.00  0.00    -0.350 OA
BRANCH  13  14
HETATM   14  C8  UNL     1      22.219  -0.855  53.211  1.00  0.00     0.195 C 
BRANCH  14  15
HETATM   15  C9  UNL     1      20.866  -0.201  53.362  1.00  0.00     0.143 C 
BRANCH  15  16
HETATM   16  N1  UNL     1      20.514   0.639  52.266  1.00  0.00    -0.410 N 
HETATM   17  C10 UNL     1      20.607   2.003  52.649  1.00  0.00     0.117 C 
HETATM   18  C11 UNL     1      20.290   3.008  51.600  1.00  0.00     0.019 C 
HETATM   19  C12 UNL     1      20.249   2.453  50.208  1.00  0.00     0.003 C 
HETATM   20  C13 UNL     1      21.396   1.458  50.119  1.00  0.00     0.019 C 
HETATM   21  C14 UNL     1      21.018   0.286  50.991  1.00  0.00     0.117 C 
ENDBRANCH  15  16
ENDBRANCH  14  15
ENDBRANCH  13  14
ENDBRANCH   7  13
TORSDOF 4
ENDMDL
MODEL 7
REMARK VINA RESULT:      -7.1      1.296      2.014
REMARK  4 active torsions:
REMARK  status: ('A' for Active; 'I' for Inactive)
REMARK    1  A    between atoms: C7_7  and  O1_8 
REMARK    2  A    between atoms: O1_8  and  C8_9 
REMARK    3  A    between atoms: C8_9  and  C9_10 
REMARK    4  A    between atoms: C9_10  and  N1_11 
ROOT
HETATM    1  C1  UNL     1      27.526   0.601  52.988  1.00  0.00    -0.004 A 
HETATM    2  C2  UNL     1      26.615   0.981  52.128  1.00  0.00    -0.022 A 
HETATM    3  C3  UNL     1      25.143   0.792  52.122  1.00  0.00     0.066 A 
HETATM    4  C4  UNL     1      24.738   0.044  53.319  1.00  0.00    -0.048 A 
HETATM    5  C5  UNL     1      23.452  -0.220  53.483  1.00  0.00    -0.045 A 
HETATM    6  C6  UNL     1      22.517   0.250  52.464  1.00  0.00     0.044 A 
HETATM    7  C7  UNL     1      21.209   0.006  52.591  1.00  0.00     0.069 A 
HETATM    8  C15 UNL     1      20.713  -0.741  53.762  1.00  0.00     0.033 A 
HETATM    9  C16 UNL     1      21.563  -1.176  54.703  1.00  0.00    -0.019 A 
HETATM   10  C17 UNL     1      23.036  -0.976  54.690  1.00  0.00     0.066 A 
HETATM   11  C18 UNL     1      25.740  -0.389  54.289  1.00  0.00     0.008 A 
HETATM   12  C19 UNL     1      27.032  -0.137  54.146  1.00  0.00     0.000 A 
ENDROOT
BRANCH   7  13
HETATM   13  O1  UNL     1      20.204   0.369  51.737  1.00  0.00    -0.350 OA
BRANCH  13  14
HETATM   14  C8  UNL     1      19.673   1.683  51.788  1.00  0.00     0.195 C 
BRANCH  14  15
HETATM   15  C9  UNL     1      20.046   2.371  50.496  1.00  0.00     0.143 C 
BRANCH  15  16
HETATM   16  N1  UNL     1      21.063   3.358  50.649  1.00  0.00    -0.410 N 
HETATM   17  C10 UNL     1      21.163   3.745  52.011  1.00  0.00     0.117 C 
HETATM   18  C11 UNL     1      22.201   4.760  52.336  1.00  0.00     0.019 C 
HETATM   19  C12 UNL     1      23.213   4.974  51.250  1.00  0.00     0.003 C 
HETATM   20  C13 UNL     1      23.512   3.598  50.678  1.00  0.00     0.019 C 
HETATM   21  C14 UNL     1      22.272   3.159  49.939  1.00  0.00     0.117 C 
ENDBRANCH  15  16
ENDBRANCH  14  15
ENDBRANCH  13  14
ENDBRANCH   7  13
TORSDOF 4
ENDMDL
MODEL 8
REMARK VINA RESULT:      -7.1      4.950      8.166
REMARK  4 active torsions:
REMARK  status: ('A' for Active; 'I' for Inactive)
REMARK    1  A    between atoms: C7_7  and  O1_8 
REMARK    2  A    between atoms: O1_8  and  C8_9 
REMARK    3  A    between atoms: C8_9  and  C9_10 
REMARK    4  A    between atoms: C9_10  and  N1_11 
ROOT
HETATM    1  C1  UNL     1      29.439   7.849  46.940  1.00  0.00    -0.004 A 
HETATM    2  C2  UNL     1      29.722   6.713  47.527  1.00  0.00    -0.022 A 
HETATM    3  C3  UNL     1      28.852   5.735  48.224  1.00  0.00     0.066 A 
HETATM    4  C4  UNL     1      27.463   6.208  48.200  1.00  0.00    -0.048 A 
HETATM    5  C5  UNL     1      26.539   5.458  48.780  1.00  0.00    -0.045 A 
HETATM    6  C6  UNL     1      26.960   4.208  49.406  1.00  0.00     0.044 A 
HETATM    7  C7  UNL     1      26.060   3.420  50.002  1.00  0.00     0.069 A 
HETATM    8  C15 UNL     1      24.639   3.818  50.027  1.00  0.00     0.033 A 
HETATM    9  C16 UNL     1      24.243   4.964  49.455  1.00  0.00    -0.019 A 
HETATM   10  C17 UNL     1      25.132   5.932  48.760  1.00  0.00     0.066 A 
HETATM   11  C18 UNL     1      27.127   7.473  47.552  1.00  0.00     0.008 A 
HETATM   12  C19 UNL     1      28.035   8.239  46.966  1.00  0.00     0.000 A 
ENDROOT
BRANCH   7  13
HETATM   13  O1  UNL     1      26.280   2.227  50.632  1.00  0.00    -0.350 OA
BRANCH  13  14
HETATM   14  C8  UNL     1      26.012   2.099  52.019  1.00  0.00     0.195 C 
BRANCH  14  15
HETATM   15  C9  UNL     1      27.341   2.086  52.736  1.00  0.00     0.143 C 
BRANCH  15  16
HETATM   16  N1  UNL     1      27.980   0.812  52.729  1.00  0.00    -0.410 N 
HETATM   17  C10 UNL     1      28.888   0.716  53.816  1.00  0.00     0.117 C 
HETATM   18  C11 UNL     1      29.620  -0.571  53.956  1.00  0.00     0.019 C 
HETATM   19  C12 UNL     1      29.049  -1.695  53.143  1.00  0.00     0.003 C 
HETATM   20  C13 UNL     1      27.538  -1.555  53.237  1.00  0.00     0.019 C 
HETATM   21  C14 UNL     1      27.169  -0.317  52.458  1.00  0.00     0.117 C 
ENDBRANCH  15  16
ENDBRANCH  14  15
ENDBRANCH  13  14
ENDBRANCH   7  13
TORSDOF 4
ENDMDL
MODEL 9
REMARK VINA RESULT:      -6.8      2.647      5.168
REMARK  4 active torsions:
REMARK  status: ('A' for Active; 'I' for Inactive)
REMARK    1  A    between atoms: C7_7  and  O1_8 
REMARK    2  A    between atoms: O1_8  and  C8_9 
REMARK    3  A    between atoms: C8_9  and  C9_10 
REMARK    4  A    between atoms: C9_10  and  N1_11 
ROOT
HETATM    1  C1  UNL     1      17.694  -0.257  51.510  1.00  0.00    -0.004 A 
HETATM    2  C2  UNL     1      18.807   0.248  51.041  1.00  0.00    -0.022 A 
HETATM    3  C3  UNL     1      20.189   0.225  51.578  1.00  0.00     0.066 A 
HETATM    4  C4  UNL     1      20.210  -0.508  52.850  1.00  0.00    -0.048 A 
HETATM    5  C5  UNL     1      21.367  -0.630  53.480  1.00  0.00    -0.045 A 
HETATM    6  C6  UNL     1      22.550  -0.030  52.870  1.00  0.00     0.044 A 
HETATM    7  C7  UNL     1      23.739  -0.131  53.472  1.00  0.00     0.069 A 
HETATM    8  C15 UNL     1      23.853  -0.849  54.755  1.00  0.00     0.033 A 
HETATM    9  C16 UNL     1      22.773  -1.404  55.323  1.00  0.00    -0.019 A 
HETATM   10  C17 UNL     1      21.395  -1.370  54.767  1.00  0.00     0.066 A 
HETATM   11  C18 UNL     1      18.979  -1.078  53.391  1.00  0.00     0.008 A 
HETATM   12  C19 UNL     1      17.809  -0.967  52.779  1.00  0.00     0.000 A 
ENDROOT
BRANCH   7  13
HETATM   13  O1  UNL     1      24.938   0.369  53.044  1.00  0.00    -0.350 OA
BRANCH  13  14
HETATM   14  C8  UNL     1      25.042   0.954  51.756  1.00  0.00     0.195 C 
BRANCH  14  15
HETATM   15  C9  UNL     1      26.001   2.116  51.865  1.00  0.00     0.143 C 
BRANCH  15  16
HETATM   16  N1  UNL     1      25.638   3.231  51.054  1.00  0.00    -0.410 N 
HETATM   17  C10 UNL     1      26.670   3.508  50.119  1.00  0.00     0.117 C 
HETATM   18  C11 UNL     1      26.429   4.638  49.182  1.00  0.00     0.019 C 
HETATM   19  C12 UNL     1      25.002   5.100  49.130  1.00  0.00     0.003 C 
HETATM   20  C13 UNL     1      24.151   3.841  49.190  1.00  0.00     0.019 C 
HETATM   21  C14 UNL     1      24.304   3.282  50.583  1.00  0.00     0.117 C 
ENDBRANCH  15  16
ENDBRANCH  14  15
ENDBRANCH  13  14
ENDBRANCH   7  13
TORSDOF 4
ENDMDL
