MODEL 1
REMARK VINA RESULT:      -7.1      0.000      0.000
REMARK  6 active torsions:
REMARK  status: ('A' for Active; 'I' for Inactive)
REMARK    1  A    between atoms: C2_2  and  O1_4 
REMARK    2  A    between atoms: C2_2  and  C4_5 
REMARK    3  A    between atoms: C5_6  and  C6_7 
REMARK    4  A    between atoms: C9_10  and  O2_11 
REMARK    5  A    between atoms: O2_11  and  C10_12 
REMARK    6  A    between atoms: C10_12  and  C11_13 
ROOT
HETATM    1  C6  UNL     1      20.691  -0.365  53.938  1.00  0.00     0.120 C 
HETATM    2  C7  UNL     1      21.394   0.625  53.464  1.00  0.00     0.013 C 
HETATM    3  C8  UNL     1      22.591   0.316  53.057  1.00  0.00     0.025 C 
HETATM    4  C9  UNL     1      23.268  -0.934  53.516  1.00  0.00     0.185 C 
HETATM    5  C16 UNL     1      22.646  -1.393  54.796  1.00  0.00     0.127 C 
HETATM    6  N2  UNL     1      21.380  -1.088  54.952  1.00  0.00    -0.252 NA
ENDROOT
BRANCH   4   7
HETATM    7  O2  UNL     1      24.629  -0.719  53.617  1.00  0.00    -0.376 OA
BRANCH   7   8
HETATM    8  C10 UNL     1      24.896   0.560  53.145  1.00  0.00     0.175 C 
BRANCH   8   9
HETATM    9  C11 UNL     1      25.844   1.243  54.129  1.00  0.00     0.038 C 
HETATM   10  C12 UNL     1      26.666   0.301  54.912  1.00  0.00     0.010 C 
HETATM   11  C13 UNL     1      28.112   0.233  54.585  1.00  0.00     0.030 C 
HETATM   12  C14 UNL     1      28.600   1.245  53.586  1.00  0.00     0.269 C 
HETATM   13  N1  UNL     1      27.940   2.508  53.910  1.00  0.00     0.083 N 
HETATM   14  C15 UNL     1      26.584   2.339  53.427  1.00  0.00     0.276 C 
HETATM   15  H19 UNL     1      27.964   2.608  54.948  1.00  0.00     0.315 HD
ENDBRANCH   8   9
ENDBRANCH   7   8
ENDBRANCH   4   7
BRANCH   1  16
HETATM   16  C5  UNL     1      19.366  -0.686  53.483  1.00  0.00    -0.043 C 
HETATM   17  C4  UNL     1      18.246  -0.955  53.122  1.00  0.00    -0.062 C 
BRANCH  17  18
HETATM   18  C2  UNL     1      16.882  -1.264  52.691  1.00  0.00     0.114 C 
HETATM   19  C1  UNL     1      16.716  -0.832  51.247  1.00  0.00     0.060 C 
HETATM   20  C3  UNL     1      16.589  -2.755  52.798  1.00  0.00     0.060 C 
BRANCH  18  21
HETATM   21  O1  UNL     1      16.009  -0.538  53.518  1.00  0.00    -0.378 OA
HETATM   22  H7  UNL     1      15.414  -1.139  54.035  1.00  0.00     0.211 HD
ENDBRANCH  18  21
ENDBRANCH  17  18
ENDBRANCH   1  16
TORSDOF 6
ENDMDL
MODEL 2
REMARK VINA RESULT:      -6.9      4.913      8.063
REMARK  6 active torsions:
REMARK  status: ('A' for Active; 'I' for Inactive)
REMARK    1  A    between atoms: C2_2  and  O1_4 
REMARK    2  A    between atoms: C2_2  and  C4_5 
REMARK    3  A    between atoms: C5_6  and  C6_7 
REMARK    4  A    between atoms: C9_10  and  O2_11 
REMARK    5  A    between atoms: O2_11  and  C10_12 
REMARK    6  A    between atoms: C10_12  and  C11_13 
ROOT
HETATM    1  C6  UNL     1      25.755   3.980  49.885  1.00  0.00     0.120 C 
HETATM    2  C7  UNL     1      24.629   3.362  49.669  1.00  0.00     0.013 C 
HETATM    3  C8  UNL     1      24.229   2.578  50.628  1.00  0.00     0.025 C 
HETATM    4  C9  UNL     1      25.179   2.068  51.661  1.00  0.00     0.185 C 
HETATM    5  C16 UNL     1      26.574   2.136  51.128  1.00  0.00     0.127 C 
HETATM    6  N2  UNL     1      26.803   3.093  50.260  1.00  0.00    -0.252 NA
ENDROOT
BRANCH   4   7
HETATM    7  O2  UNL     1      24.805   0.798  52.054  1.00  0.00    -0.376 OA
BRANCH   7   8
HETATM    8  C10 UNL     1      24.663   0.803  53.436  1.00  0.00     0.175 C 
BRANCH   8   9
HETATM    9  C11 UNL     1      25.572  -0.282  54.013  1.00  0.00     0.038 C 
HETATM   10  C12 UNL     1      26.148  -1.178  52.991  1.00  0.00     0.010 C 
HETATM   11  C13 UNL     1      27.598  -1.037  52.711  1.00  0.00     0.030 C 
HETATM   12  C14 UNL     1      28.344  -0.092  53.610  1.00  0.00     0.269 C 
HETATM   13  N1  UNL     1      27.837  -0.309  54.963  1.00  0.00     0.083 N 
HETATM   14  C15 UNL     1      26.541   0.338  54.969  1.00  0.00     0.276 C 
HETATM   15  H19 UNL     1      27.748  -1.340  55.094  1.00  0.00     0.315 HD
ENDBRANCH   8   9
ENDBRANCH   7   8
ENDBRANCH   4   7
BRANCH   1  16
HETATM   16  C5  UNL     1      25.916   5.403  49.756  1.00  0.00    -0.043 C 
HETATM   17  C4  UNL     1      26.062   6.598  49.667  1.00  0.00    -0.062 C 
BRANCH  17  18
HETATM   18  C2  UNL     1      26.257   8.045  49.561  1.00  0.00     0.114 C 
HETATM   19  C1  UNL     1      27.133   8.331  48.356  1.00  0.00     0.060 C 
HETATM   20  C3  UNL     1      24.931   8.775  49.393  1.00  0.00     0.060 C 
BRANCH  18  21
HETATM   21  O1  UNL     1      26.897   8.466  50.737  1.00  0.00    -0.378 OA
HETATM   22  H7  UNL     1      26.257   8.546  51.490  1.00  0.00     0.211 HD
ENDBRANCH  18  21
ENDBRANCH  17  18
ENDBRANCH   1  16
TORSDOF 6
ENDMDL
MODEL 3
REMARK VINA RESULT:      -6.7      4.594      9.022
REMARK  6 active torsions:
REMARK  status: ('A' for Active; 'I' for Inactive)
REMARK    1  A    between atoms: C2_2  and  O1_4 
REMARK    2  A    between atoms: C2_2  and  C4_5 
REMARK    3  A    between atoms: C5_6  and  C6_7 
REMARK    4  A    between atoms: C9_10  and  O2_11 
REMARK    5  A    between atoms: O2_11  and  C10_12 
REMARK    6  A    between atoms: C10_12  and  C11_13 
ROOT
HETATM    1  C6  UNL     1      26.072   3.568  49.703  1.00  0.00     0.120 C 
HETATM    2  C7  UNL     1      24.812   3.277  49.546  1.00  0.00     0.013 C 
HETATM    3  C8  UNL     1      24.168   2.977  50.637  1.00  0.00     0.025 C 
HETATM    4  C9  UNL     1      24.889   2.548  51.871  1.00  0.00     0.185 C 
HETATM    5  C16 UNL     1      26.244   2.034  51.501  1.00  0.00     0.127 C 
HETATM    6  N2  UNL     1      26.778   2.568  50.429  1.00  0.00    -0.252 NA
ENDROOT
BRANCH   4   7
HETATM    7  O2  UNL     1      24.127   1.628  52.564  1.00  0.00    -0.376 OA
BRANCH   7   8
HETATM    8  C10 UNL     1      22.791   1.874  52.272  1.00  0.00     0.175 C 
BRANCH   8   9
HETATM    9  C11 UNL     1      22.016   0.569  52.447  1.00  0.00     0.038 C 
HETATM   10  C12 UNL     1      22.816  -0.520  53.042  1.00  0.00     0.010 C 
HETATM   11  C13 UNL     1      22.494  -0.910  54.437  1.00  0.00     0.030 C 
HETATM   12  C14 UNL     1      21.286  -0.243  55.034  1.00  0.00     0.269 C 
HETATM   13  N1  UNL     1      20.266  -0.204  53.989  1.00  0.00     0.083 N 
HETATM   14  C15 UNL     1      20.702   0.856  53.102  1.00  0.00     0.276 C 
HETATM   15  H19 UNL     1      20.282  -1.131  53.511  1.00  0.00     0.315 HD
ENDBRANCH   8   9
ENDBRANCH   7   8
ENDBRANCH   4   7
BRANCH   1  16
HETATM   16  C5  UNL     1      26.678   4.770  49.196  1.00  0.00    -0.043 C 
HETATM   17  C4  UNL     1      27.187   5.786  48.790  1.00  0.00    -0.062 C 
BRANCH  17  18
HETATM   18  C2  UNL     1      27.820   7.015  48.309  1.00  0.00     0.114 C 
HETATM   19  C1  UNL     1      29.107   6.652  47.592  1.00  0.00     0.060 C 
HETATM   20  C3  UNL     1      26.913   7.769  47.346  1.00  0.00     0.060 C 
BRANCH  18  21
HETATM   21  O1  UNL     1      28.099   7.807  49.434  1.00  0.00    -0.378 OA
HETATM   22  H7  UNL     1      28.364   7.253  50.212  1.00  0.00     0.211 HD
ENDBRANCH  18  21
ENDBRANCH  17  18
ENDBRANCH   1  16
TORSDOF 6
ENDMDL
MODEL 4
REMARK VINA RESULT:      -6.6      4.941      7.495
REMARK  6 active torsions:
REMARK  status: ('A' for Active; 'I' for Inactive)
REMARK    1  A    between atoms: C2_2  and  O1_4 
REMARK    2  A    between atoms: C2_2  and  C4_5 
REMARK    3  A    between atoms: C5_6  and  C6_7 
REMARK    4  A    between atoms: C9_10  and  O2_11 
REMARK    5  A    between atoms: O2_11  and  C10_12 
REMARK    6  A    between atoms: C10_12  and  C11_13 
ROOT
HETATM    1  C6  UNL     1      23.981   2.276  51.945  1.00  0.00     0.120 C 
HETATM    2  C7  UNL     1      23.521   2.162  50.732  1.00  0.00     0.013 C 
HETATM    3  C8  UNL     1      23.746   3.179  49.950  1.00  0.00     0.025 C 
HETATM    4  C9  UNL     1      24.074   4.526  50.505  1.00  0.00     0.185 C 
HETATM    5  C16 UNL     1      23.587   4.613  51.916  1.00  0.00     0.127 C 
HETATM    6  N2  UNL     1      23.562   3.481  52.578  1.00  0.00    -0.252 NA
ENDROOT
BRANCH   4   7
HETATM    7  O2  UNL     1      23.554   5.509  49.686  1.00  0.00    -0.376 OA
BRANCH   7   8
HETATM    8  C10 UNL     1      24.524   5.844  48.751  1.00  0.00     0.175 C 
BRANCH   8   9
HETATM    9  C11 UNL     1      25.855   6.014  49.482  1.00  0.00     0.038 C 
HETATM   10  C12 UNL     1      26.991   5.356  48.808  1.00  0.00     0.010 C 
HETATM   11  C13 UNL     1      27.990   6.236  48.155  1.00  0.00     0.030 C 
HETATM   12  C14 UNL     1      27.804   7.710  48.383  1.00  0.00     0.269 C 
HETATM   13  N1  UNL     1      27.430   7.875  49.786  1.00  0.00     0.083 N 
HETATM   14  C15 UNL     1      26.045   7.454  49.840  1.00  0.00     0.276 C 
HETATM   15  H19 UNL     1      28.042   7.240  50.343  1.00  0.00     0.315 HD
ENDBRANCH   8   9
ENDBRANCH   7   8
ENDBRANCH   4   7
BRANCH   1  16
HETATM   16  C5  UNL     1      24.819   1.291  52.572  1.00  0.00    -0.043 C 
HETATM   17  C4  UNL     1      25.517   0.471  53.117  1.00  0.00    -0.062 C 
BRANCH  17  18
HETATM   18  C2  UNL     1      26.349  -0.530  53.788  1.00  0.00     0.114 C 
HETATM   19  C1  UNL     1      26.820  -1.541  52.760  1.00  0.00     0.060 C 
HETATM   20  C3  UNL     1      27.564   0.108  54.448  1.00  0.00     0.060 C 
BRANCH  18  21
HETATM   21  O1  UNL     1      25.546  -1.158  54.754  1.00  0.00    -0.378 OA
HETATM   22  H7  UNL     1      25.701  -0.778  55.657  1.00  0.00     0.211 HD
ENDBRANCH  18  21
ENDBRANCH  17  18
ENDBRANCH   1  16
TORSDOF 6
ENDMDL
MODEL 5
REMARK VINA RESULT:      -6.5      4.731      5.889
REMARK  6 active torsions:
REMARK  status: ('A' for Active; 'I' for Inactive)
REMARK    1  A    between atoms: C2_2  and  O1_4 
REMARK    2  A    between atoms: C2_2  and  C4_5 
REMARK    3  A    between atoms: C5_6  and  C6_7 
REMARK    4  A    between atoms: C9_10  and  O2_11 
REMARK    5  A    between atoms: O2_11  and  C10_12 
REMARK    6  A    between atoms: C10_12  and  C11_13 
ROOT
HETATM    1  C6  UNL     1      23.138   2.316  51.946  1.00  0.00     0.120 C 
HETATM    2  C7  UNL     1      23.691   3.378  52.459  1.00  0.00     0.013 C 
HETATM    3  C8  UNL     1      23.466   4.490  51.821  1.00  0.00     0.025 C 
HETATM    4  C9  UNL     1      23.022   4.490  50.395  1.00  0.00     0.185 C 
HETATM    5  C16 UNL     1      23.400   3.190  49.759  1.00  0.00     0.127 C 
HETATM    6  N2  UNL     1      23.441   2.156  50.564  1.00  0.00    -0.252 NA
ENDROOT
BRANCH   4   7
HETATM    7  O2  UNL     1      23.544   5.589  49.742  1.00  0.00    -0.376 OA
BRANCH   7   8
HETATM    8  C10 UNL     1      24.589   5.153  48.938  1.00  0.00     0.175 C 
BRANCH   8   9
HETATM    9  C11 UNL     1      25.905   5.554  49.606  1.00  0.00     0.038 C 
HETATM   10  C12 UNL     1      27.098   4.972  48.960  1.00  0.00     0.010 C 
HETATM   11  C13 UNL     1      27.968   5.897  48.192  1.00  0.00     0.030 C 
HETATM   12  C14 UNL     1      27.608   7.353  48.283  1.00  0.00     0.269 C 
HETATM   13  N1  UNL     1      27.246   7.612  49.676  1.00  0.00     0.083 N 
HETATM   14  C15 UNL     1      25.924   7.035  49.816  1.00  0.00     0.276 C 
HETATM   15  H19 UNL     1      27.943   7.113  50.270  1.00  0.00     0.315 HD
ENDBRANCH   8   9
ENDBRANCH   7   8
ENDBRANCH   4   7
BRANCH   1  16
HETATM   16  C5  UNL     1      22.313   1.409  52.697  1.00  0.00    -0.043 C 
HETATM   17  C4  UNL     1      21.638   0.636  53.332  1.00  0.00    -0.062 C 
BRANCH  17  18
HETATM   18  C2  UNL     1      20.830  -0.299  54.118  1.00  0.00     0.114 C 
HETATM   19  C1  UNL     1      19.567  -0.622  53.342  1.00  0.00     0.060 C 
HETATM   20  C3  UNL     1      21.586  -1.592  54.394  1.00  0.00     0.060 C 
BRANCH  18  21
HETATM   21  O1  UNL     1      20.509   0.342  55.325  1.00  0.00    -0.378 OA
HETATM   22  H7  UNL     1      20.210   1.275  55.172  1.00  0.00     0.211 HD
ENDBRANCH  18  21
ENDBRANCH  17  18
ENDBRANCH   1  16
TORSDOF 6
ENDMDL
MODEL 6
REMARK VINA RESULT:      -6.4      2.031      2.570
REMARK  6 active torsions:
REMARK  status: ('A' for Active; 'I' for Inactive)
REMARK    1  A    between atoms: C2_2  and  O1_4 
REMARK    2  A    between atoms: C2_2  and  C4_5 
REMARK    3  A    between atoms: C5_6  and  C6_7 
REMARK    4  A    between atoms: C9_10  and  O2_11 
REMARK    5  A    between atoms: O2_11  and  C10_12 
REMARK    6  A    between atoms: C10_12  and  C11_13 
ROOT
HETATM    1  C6  UNL     1      21.515   0.302  51.666  1.00  0.00     0.120 C 
HETATM    2  C7  UNL     1      22.167  -0.354  52.583  1.00  0.00     0.013 C 
HETATM    3  C8  UNL     1      22.996   0.354  53.294  1.00  0.00     0.025 C 
HETATM    4  C9  UNL     1      23.505   1.671  52.809  1.00  0.00     0.185 C 
HETATM    5  C16 UNL     1      23.369   1.739  51.322  1.00  0.00     0.127 C 
HETATM    6  N2  UNL     1      22.376   1.049  50.813  1.00  0.00    -0.252 NA
ENDROOT
BRANCH   4   7
HETATM    7  O2  UNL     1      24.801   1.863  53.248  1.00  0.00    -0.376 OA
BRANCH   7   8
HETATM    8  C10 UNL     1      25.405   0.617  53.353  1.00  0.00     0.175 C 
BRANCH   8   9
HETATM    9  C11 UNL     1      26.778   0.695  52.687  1.00  0.00     0.038 C 
HETATM   10  C12 UNL     1      27.335   2.061  52.633  1.00  0.00     0.010 C 
HETATM   11  C13 UNL     1      28.481   2.358  53.527  1.00  0.00     0.030 C 
HETATM   12  C14 UNL     1      29.038   1.183  54.281  1.00  0.00     0.269 C 
HETATM   13  N1  UNL     1      29.056   0.055  53.351  1.00  0.00     0.083 N 
HETATM   14  C15 UNL     1      27.671  -0.359  53.263  1.00  0.00     0.276 C 
HETATM   15  H19 UNL     1      29.403   0.419  52.437  1.00  0.00     0.315 HD
ENDBRANCH   8   9
ENDBRANCH   7   8
ENDBRANCH   4   7
BRANCH   1  16
HETATM   16  C5  UNL     1      20.084   0.272  51.534  1.00  0.00    -0.043 C 
HETATM   17  C4  UNL     1      18.881   0.241  51.443  1.00  0.00    -0.062 C 
BRANCH  17  18
HETATM   18  C2  UNL     1      17.420   0.218  51.347  1.00  0.00     0.114 C 
HETATM   19  C1  UNL     1      17.031  -0.156  49.929  1.00  0.00     0.060 C 
HETATM   20  C3  UNL     1      16.815  -0.794  52.310  1.00  0.00     0.060 C 
BRANCH  18  21
HETATM   21  O1  UNL     1      16.962   1.510  51.651  1.00  0.00    -0.378 OA
HETATM   22  H7  UNL     1      16.631   1.977  50.842  1.00  0.00     0.211 HD
ENDBRANCH  18  21
ENDBRANCH  17  18
ENDBRANCH   1  16
TORSDOF 6
ENDMDL
MODEL 7
REMARK VINA RESULT:      -6.4      8.387     11.643
REMARK  6 active torsions:
REMARK  status: ('A' for Active; 'I' for Inactive)
REMARK    1  A    between atoms: C2_2  and  O1_4 
REMARK    2  A    between atoms: C2_2  and  C4_5 
REMARK    3  A    between atoms: C5_6  and  C6_7 
REMARK    4  A    between atoms: C9_10  and  O2_11 
REMARK    5  A    between atoms: O2_11  and  C10_12 
REMARK    6  A    between atoms: C10_12  and  C11_13 
ROOT
HETATM    1  C6  UNL     1      28.938   6.241  48.100  1.00  0.00     0.120 C 
HETATM    2  C7  UNL     1      29.991   5.476  48.050  1.00  0.00     0.013 C 
HETATM    3  C8  UNL     1      31.051   5.946  48.644  1.00  0.00     0.025 C 
HETATM    4  C9  UNL     1      31.193   7.402  48.939  1.00  0.00     0.185 C 
HETATM    5  C16 UNL     1      30.295   8.182  48.034  1.00  0.00     0.127 C 
HETATM    6  N2  UNL     1      29.201   7.566  47.652  1.00  0.00    -0.252 NA
ENDROOT
BRANCH   4   7
HETATM    7  O2  UNL     1      32.521   7.772  48.842  1.00  0.00    -0.376 OA
BRANCH   7   8
HETATM    8  C10 UNL     1      32.801   8.012  47.503  1.00  0.00     0.175 C 
BRANCH   8   9
HETATM    9  C11 UNL     1      34.139   7.354  47.170  1.00  0.00     0.038 C 
HETATM   10  C12 UNL     1      35.009   7.151  48.345  1.00  0.00     0.010 C 
HETATM   11  C13 UNL     1      35.190   5.757  48.819  1.00  0.00     0.030 C 
HETATM   12  C14 UNL     1      34.578   4.692  47.952  1.00  0.00     0.269 C 
HETATM   13  N1  UNL     1      34.837   5.076  46.566  1.00  0.00     0.083 N 
HETATM   14  C15 UNL     1      33.901   6.152  46.310  1.00  0.00     0.276 C 
HETATM   15  H19 UNL     1      35.824   5.413  46.522  1.00  0.00     0.315 HD
ENDBRANCH   8   9
ENDBRANCH   7   8
ENDBRANCH   4   7
BRANCH   1  16
HETATM   16  C5  UNL     1      27.651   5.790  48.558  1.00  0.00    -0.043 C 
HETATM   17  C4  UNL     1      26.578   5.414  48.962  1.00  0.00    -0.062 C 
BRANCH  17  18
HETATM   18  C2  UNL     1      25.274   4.975  49.462  1.00  0.00     0.114 C 
HETATM   19  C1  UNL     1      24.190   5.559  48.574  1.00  0.00     0.060 C 
HETATM   20  C3  UNL     1      25.156   3.457  49.453  1.00  0.00     0.060 C 
BRANCH  18  21
HETATM   21  O1  UNL     1      25.144   5.464  50.771  1.00  0.00    -0.378 OA
HETATM   22  H7  UNL     1      25.812   6.171  50.963  1.00  0.00     0.211 HD
ENDBRANCH  18  21
ENDBRANCH  17  18
ENDBRANCH   1  16
TORSDOF 6
ENDMDL
MODEL 8
REMARK VINA RESULT:      -6.1     13.400     15.786
REMARK  6 active torsions:
REMARK  status: ('A' for Active; 'I' for Inactive)
REMARK    1  A    between atoms: C2_2  and  O1_4 
REMARK    2  A    between atoms: C2_2  and  C4_5 
REMARK    3  A    between atoms: C5_6  and  C6_7 
REMARK    4  A    between atoms: C9_10  and  O2_11 
REMARK    5  A    between atoms: O2_11  and  C10_12 
REMARK    6  A    between atoms: C10_12  and  C11_13 
ROOT
HETATM    1  C6  UNL     1      33.419   5.067  42.358  1.00  0.00     0.120 C 
HETATM    2  C7  UNL     1      34.518   4.930  43.043  1.00  0.00     0.013 C 
HETATM    3  C8  UNL     1      34.392   5.051  44.333  1.00  0.00     0.025 C 
HETATM    4  C9  UNL     1      33.213   5.742  44.936  1.00  0.00     0.185 C 
HETATM    5  C16 UNL     1      32.598   6.650  43.919  1.00  0.00     0.127 C 
HETATM    6  N2  UNL     1      32.727   6.271  42.670  1.00  0.00    -0.252 NA
ENDROOT
BRANCH   4   7
HETATM    7  O2  UNL     1      33.594   6.395  46.091  1.00  0.00    -0.376 OA
BRANCH   7   8
HETATM    8  C10 UNL     1      32.539   6.321  46.991  1.00  0.00     0.175 C 
BRANCH   8   9
HETATM    9  C11 UNL     1      32.938   5.369  48.118  1.00  0.00     0.038 C 
HETATM   10  C12 UNL     1      32.448   3.989  47.929  1.00  0.00     0.010 C 
HETATM   11  C13 UNL     1      33.457   2.956  47.588  1.00  0.00     0.030 C 
HETATM   12  C14 UNL     1      34.889   3.412  47.618  1.00  0.00     0.269 C 
HETATM   13  N1  UNL     1      35.032   4.274  48.790  1.00  0.00     0.083 N 
HETATM   14  C15 UNL     1      34.400   5.518  48.400  1.00  0.00     0.276 C 
HETATM   15  H19 UNL     1      34.517   3.814  49.572  1.00  0.00     0.315 HD
ENDBRANCH   8   9
ENDBRANCH   7   8
ENDBRANCH   4   7
BRANCH   1  16
HETATM   16  C5  UNL     1      32.960   4.105  41.393  1.00  0.00    -0.043 C 
HETATM   17  C4  UNL     1      32.562   3.289  40.598  1.00  0.00    -0.062 C 
BRANCH  17  18
HETATM   18  C2  UNL     1      32.061   2.305  39.637  1.00  0.00     0.114 C 
HETATM   19  C1  UNL     1      30.934   2.933  38.838  1.00  0.00     0.060 C 
HETATM   20  C3  UNL     1      33.156   1.855  38.678  1.00  0.00     0.060 C 
BRANCH  18  21
HETATM   21  O1  UNL     1      31.582   1.210  40.373  1.00  0.00    -0.378 OA
HETATM   22  H7  UNL     1      30.607   1.085  40.245  1.00  0.00     0.211 HD
ENDBRANCH  18  21
ENDBRANCH  17  18
ENDBRANCH   1  16
TORSDOF 6
ENDMDL
MODEL 9
REMARK VINA RESULT:      -6.1      7.419     10.266
REMARK  6 active torsions:
REMARK  status: ('A' for Active; 'I' for Inactive)
REMARK    1  A    between atoms: C2_2  and  O1_4 
REMARK    2  A    between atoms: C2_2  and  C4_5 
REMARK    3  A    between atoms: C5_6  and  C6_7 
REMARK    4  A    between atoms: C9_10  and  O2_11 
REMARK    5  A    between atoms: O2_11  and  C10_12 
REMARK    6  A    between atoms: C10_12  and  C11_13 
ROOT
HETATM    1  C6  UNL     1      26.473   4.736  49.159  1.00  0.00     0.120 C 
HETATM    2  C7  UNL     1      27.608   4.904  48.542  1.00  0.00     0.013 C 
HETATM    3  C8  UNL     1      28.075   6.119  48.552  1.00  0.00     0.025 C 
HETATM    4  C9  UNL     1      27.188   7.289  48.823  1.00  0.00     0.185 C 
HETATM    5  C16 UNL     1      25.769   6.912  48.538  1.00  0.00     0.127 C 
HETATM    6  N2  UNL     1      25.472   5.647  48.720  1.00  0.00    -0.252 NA
ENDROOT
BRANCH   4   7
HETATM    7  O2  UNL     1      27.619   8.381  48.096  1.00  0.00    -0.376 OA
BRANCH   7   8
HETATM    8  C10 UNL     1      28.984   8.525  48.310  1.00  0.00     0.175 C 
BRANCH   8   9
HETATM    9  C11 UNL     1      29.195   9.684  49.283  1.00  0.00     0.038 C 
HETATM   10  C12 UNL     1      30.604  10.108  49.403  1.00  0.00     0.010 C 
HETATM   11  C13 UNL     1      30.971  11.412  48.799  1.00  0.00     0.030 C 
HETATM   12  C14 UNL     1      29.826  12.222  48.259  1.00  0.00     0.269 C 
HETATM   13  N1  UNL     1      28.731  12.097  49.219  1.00  0.00     0.083 N 
HETATM   14  C15 UNL     1      28.204  10.766  48.990  1.00  0.00     0.276 C 
HETATM   15  H19 UNL     1      29.148  12.181  50.171  1.00  0.00     0.315 HD
ENDBRANCH   8   9
ENDBRANCH   7   8
ENDBRANCH   4   7
BRANCH   1  16
HETATM   16  C5  UNL     1      26.260   3.738  50.171  1.00  0.00    -0.043 C 
HETATM   17  C4  UNL     1      26.062   2.909  51.027  1.00  0.00    -0.062 C 
BRANCH  17  18
HETATM   18  C2  UNL     1      25.806   1.900  52.056  1.00  0.00     0.114 C 
HETATM   19  C1  UNL     1      24.361   1.453  51.951  1.00  0.00     0.060 C 
HETATM   20  C3  UNL     1      26.713   0.689  51.886  1.00  0.00     0.060 C 
BRANCH  18  21
HETATM   21  O1  UNL     1      26.037   2.507  53.301  1.00  0.00    -0.378 OA
HETATM   22  H7  UNL     1      26.072   3.495  53.222  1.00  0.00     0.211 HD
ENDBRANCH  18  21
ENDBRANCH  17  18
ENDBRANCH   1  16
TORSDOF 6
ENDMDL
