MODEL 1
REMARK VINA RESULT:      -8.1      0.000      0.000
REMARK  7 active torsions:
REMARK  status: ('A' for Active; 'I' for Inactive)
REMARK    1  A    between atoms: C2_2  and  C3_3 
REMARK    2  A    between atoms: C2_2  and  C8_10 
REMARK    3  A    between atoms: C3_3  and  N1_4 
REMARK    4  A    between atoms: C8_10  and  C9_12 
REMARK    5  A    between atoms: C13_16  and  O3_17 
REMARK    6  A    between atoms: O3_17  and  C14_18 
REMARK    7  A    between atoms: C14_18  and  C15_19 
ROOT
HETATM    1  C9  UNL     1      24.110   2.648  50.353  1.00  0.00     0.017 A 
HETATM    2  C10 UNL     1      24.303   3.686  49.437  1.00  0.00     0.015 A 
HETATM    3  C11 UNL     1      25.559   4.274  49.259  1.00  0.00     0.004 A 
HETATM    4  C12 UNL     1      26.609   3.809  50.009  1.00  0.00     0.037 A 
HETATM    5  C13 UNL     1      26.512   2.798  50.927  1.00  0.00     0.070 A 
HETATM    6  C21 UNL     1      25.227   2.253  51.056  1.00  0.00     0.052 A 
ENDROOT
BRANCH   1   7
HETATM    7  C8  UNL     1      22.748   2.152  50.410  1.00  0.00     0.189 C 
HETATM    8  O2  UNL     1      22.244   1.755  49.321  1.00  0.00    -0.287 OA
BRANCH   7   9
HETATM    9  C2  UNL     1      21.854   2.041  51.554  1.00  0.00     0.011 C 
HETATM   10  C1  UNL     1      21.346   3.077  52.202  1.00  0.00     0.025 C 
BRANCH   9  11
HETATM   11  C3  UNL     1      21.447   0.737  52.078  1.00  0.00     0.314 C 
BRANCH  11  12
HETATM   12  N1  UNL     1      21.950   0.456  53.395  1.00  0.00     0.096 N 
HETATM   13  C4  UNL     1      20.968  -0.057  54.297  1.00  0.00     0.299 C 
HETATM   14  C5  UNL     1      21.271  -1.526  54.525  1.00  0.00     0.198 C 
HETATM   15  O1  UNL     1      22.427  -1.578  55.295  1.00  0.00    -0.388 OA
HETATM   16  C6  UNL     1      23.496  -0.933  54.698  1.00  0.00     0.198 C 
HETATM   17  C7  UNL     1      23.177  -0.287  53.395  1.00  0.00     0.299 C 
ENDBRANCH  11  12
ENDBRANCH   9  11
ENDBRANCH   7   9
ENDBRANCH   1   7
BRANCH   5  18
HETATM   18  O3  UNL     1      27.383   2.192  51.753  1.00  0.00    -0.347 OA
BRANCH  18  19
HETATM   19  C14 UNL     1      27.326   1.611  52.988  1.00  0.00     0.214 C 
BRANCH  19  20
HETATM   20  C15 UNL     1      27.568   0.158  52.920  1.00  0.00    -0.034 A 
HETATM   21  C16 UNL     1      26.771  -0.873  52.493  1.00  0.00     0.009 A 
HETATM   22  C17 UNL     1      27.177  -2.185  52.521  1.00  0.00     0.001 A 
HETATM   23  C18 UNL     1      28.421  -2.559  52.983  1.00  0.00     0.000 A 
HETATM   24  C19 UNL     1      29.264  -1.566  53.424  1.00  0.00     0.001 A 
HETATM   25  C20 UNL     1      28.825  -0.261  53.382  1.00  0.00     0.009 A 
ENDBRANCH  19  20
ENDBRANCH  18  19
ENDBRANCH   5  18
TORSDOF 7
ENDMDL
MODEL 2
REMARK VINA RESULT:      -7.8      1.680      4.936
REMARK  7 active torsions:
REMARK  status: ('A' for Active; 'I' for Inactive)
REMARK    1  A    between atoms: C2_2  and  C3_3 
REMARK    2  A    between atoms: C2_2  and  C8_10 
REMARK    3  A    between atoms: C3_3  and  N1_4 
REMARK    4  A    between atoms: C8_10  and  C9_12 
REMARK    5  A    between atoms: C13_16  and  O3_17 
REMARK    6  A    between atoms: O3_17  and  C14_18 
REMARK    7  A    between atoms: C14_18  and  C15_19 
ROOT
HETATM    1  C9  UNL     1      21.913   0.991  53.182  1.00  0.00     0.017 A 
HETATM    2  C10 UNL     1      21.020   0.326  54.026  1.00  0.00     0.015 A 
HETATM    3  C11 UNL     1      21.434  -0.748  54.821  1.00  0.00     0.004 A 
HETATM    4  C12 UNL     1      22.747  -1.139  54.754  1.00  0.00     0.037 A 
HETATM    5  C13 UNL     1      23.689  -0.546  53.958  1.00  0.00     0.070 A 
HETATM    6  C21 UNL     1      23.208   0.523  53.188  1.00  0.00     0.052 A 
ENDROOT
BRANCH   1   7
HETATM    7  C8  UNL     1      21.318   2.082  52.431  1.00  0.00     0.189 C 
HETATM    8  O2  UNL     1      20.273   2.601  52.917  1.00  0.00    -0.287 OA
BRANCH   7   9
HETATM    9  C2  UNL     1      21.751   2.682  51.177  1.00  0.00     0.011 C 
HETATM   10  C1  UNL     1      21.198   2.425  50.003  1.00  0.00     0.025 C 
BRANCH   9  11
HETATM   11  C3  UNL     1      22.860   3.635  51.132  1.00  0.00     0.314 C 
BRANCH  11  12
HETATM   12  N1  UNL     1      24.067   3.098  50.565  1.00  0.00     0.096 N 
HETATM   13  C4  UNL     1      24.474   3.733  49.352  1.00  0.00     0.299 C 
HETATM   14  C5  UNL     1      25.704   4.567  49.655  1.00  0.00     0.198 C 
HETATM   15  O1  UNL     1      26.745   3.673  49.877  1.00  0.00    -0.388 OA
HETATM   16  C6  UNL     1      26.476   2.784  50.903  1.00  0.00     0.198 C 
HETATM   17  C7  UNL     1      25.128   2.940  51.517  1.00  0.00     0.299 C 
ENDBRANCH  11  12
ENDBRANCH   9  11
ENDBRANCH   7   9
ENDBRANCH   1   7
BRANCH   5  18
HETATM   18  O3  UNL     1      24.999  -0.754  53.737  1.00  0.00    -0.347 OA
BRANCH  18  19
HETATM   19  C14 UNL     1      25.825  -0.758  52.649  1.00  0.00     0.214 C 
BRANCH  19  20
HETATM   20  C15 UNL     1      27.242  -0.641  53.039  1.00  0.00    -0.034 A 
HETATM   21  C16 UNL     1      27.984   0.439  53.443  1.00  0.00     0.009 A 
HETATM   22  C17 UNL     1      29.320   0.347  53.755  1.00  0.00     0.001 A 
HETATM   23  C18 UNL     1      30.010  -0.844  53.683  1.00  0.00     0.000 A 
HETATM   24  C19 UNL     1      29.315  -1.962  53.283  1.00  0.00     0.001 A 
HETATM   25  C20 UNL     1      27.978  -1.835  52.978  1.00  0.00     0.009 A 
ENDBRANCH  19  20
ENDBRANCH  18  19
ENDBRANCH   5  18
TORSDOF 7
ENDMDL
MODEL 3
REMARK VINA RESULT:      -7.7      3.368      7.842
REMARK  7 active torsions:
REMARK  status: ('A' for Active; 'I' for Inactive)
REMARK    1  A    between atoms: C2_2  and  C3_3 
REMARK    2  A    between atoms: C2_2  and  C8_10 
REMARK    3  A    between atoms: C3_3  and  N1_4 
REMARK    4  A    between atoms: C8_10  and  C9_12 
REMARK    5  A    between atoms: C13_16  and  O3_17 
REMARK    6  A    between atoms: O3_17  and  C14_18 
REMARK    7  A    between atoms: C14_18  and  C15_19 
ROOT
HETATM    1  C9  UNL     1      22.404   0.437  52.663  1.00  0.00     0.017 A 
HETATM    2  C10 UNL     1      22.896  -0.205  53.803  1.00  0.00     0.015 A 
HETATM    3  C11 UNL     1      22.083  -1.043  54.572  1.00  0.00     0.004 A 
HETATM    4  C12 UNL     1      20.780  -1.225  54.182  1.00  0.00     0.037 A 
HETATM    5  C13 UNL     1      20.216  -0.638  53.082  1.00  0.00     0.070 A 
HETATM    6  C21 UNL     1      21.084   0.189  52.356  1.00  0.00     0.052 A 
ENDROOT
BRANCH   1   7
HETATM    7  C8  UNL     1      23.380   1.268  51.982  1.00  0.00     0.189 C 
HETATM    8  O2  UNL     1      23.207   1.442  50.741  1.00  0.00    -0.287 OA
BRANCH   7   9
HETATM    9  C2  UNL     1      24.551   1.944  52.520  1.00  0.00     0.011 C 
HETATM   10  C1  UNL     1      24.499   3.044  53.254  1.00  0.00     0.025 C 
BRANCH   9  11
HETATM   11  C3  UNL     1      25.901   1.438  52.276  1.00  0.00     0.314 C 
BRANCH  11  12
HETATM   12  N1  UNL     1      26.495   0.790  53.414  1.00  0.00     0.096 N 
HETATM   13  C4  UNL     1      26.488  -0.637  53.340  1.00  0.00     0.299 C 
HETATM   14  C5  UNL     1      27.914  -1.095  53.097  1.00  0.00     0.198 C 
HETATM   15  O1  UNL     1      28.611  -0.869  54.278  1.00  0.00    -0.388 OA
HETATM   16  C6  UNL     1      28.570   0.456  54.677  1.00  0.00     0.198 C 
HETATM   17  C7  UNL     1      27.762   1.342  53.794  1.00  0.00     0.299 C 
ENDBRANCH  11  12
ENDBRANCH   9  11
ENDBRANCH   7   9
ENDBRANCH   1   7
BRANCH   5  18
HETATM   18  O3  UNL     1      18.993  -0.672  52.522  1.00  0.00    -0.347 OA
BRANCH  18  19
HETATM   19  C14 UNL     1      17.704  -0.670  52.974  1.00  0.00     0.214 C 
BRANCH  19  20
HETATM   20  C15 UNL     1      17.153  -2.035  53.057  1.00  0.00    -0.034 A 
HETATM   21  C16 UNL     1      17.631  -3.170  53.660  1.00  0.00     0.009 A 
HETATM   22  C17 UNL     1      16.967  -4.372  53.613  1.00  0.00     0.001 A 
HETATM   23  C18 UNL     1      15.767  -4.522  52.952  1.00  0.00     0.000 A 
HETATM   24  C19 UNL     1      15.239  -3.415  52.328  1.00  0.00     0.001 A 
HETATM   25  C20 UNL     1      15.930  -2.226  52.395  1.00  0.00     0.009 A 
ENDBRANCH  19  20
ENDBRANCH  18  19
ENDBRANCH   5  18
TORSDOF 7
ENDMDL
MODEL 4
REMARK VINA RESULT:      -7.7      2.331      4.840
REMARK  7 active torsions:
REMARK  status: ('A' for Active; 'I' for Inactive)
REMARK    1  A    between atoms: C2_2  and  C3_3 
REMARK    2  A    between atoms: C2_2  and  C8_10 
REMARK    3  A    between atoms: C3_3  and  N1_4 
REMARK    4  A    between atoms: C8_10  and  C9_12 
REMARK    5  A    between atoms: C13_16  and  O3_17 
REMARK    6  A    between atoms: O3_17  and  C14_18 
REMARK    7  A    between atoms: C14_18  and  C15_19 
ROOT
HETATM    1  C9  UNL     1      21.518  -0.092  52.639  1.00  0.00     0.017 A 
HETATM    2  C10 UNL     1      20.861  -0.796  53.652  1.00  0.00     0.015 A 
HETATM    3  C11 UNL     1      21.561  -1.321  54.743  1.00  0.00     0.004 A 
HETATM    4  C12 UNL     1      22.918  -1.130  54.800  1.00  0.00     0.037 A 
HETATM    5  C13 UNL     1      23.642  -0.454  53.855  1.00  0.00     0.070 A 
HETATM    6  C21 UNL     1      22.880   0.046  52.789  1.00  0.00     0.052 A 
ENDROOT
BRANCH   1   7
HETATM    7  C8  UNL     1      20.643   0.384  51.584  1.00  0.00     0.189 C 
HETATM    8  O2  UNL     1      19.452  -0.042  51.600  1.00  0.00    -0.287 OA
BRANCH   7   9
HETATM    9  C2  UNL     1      20.932   1.297  50.487  1.00  0.00     0.011 C 
HETATM   10  C1  UNL     1      21.362   0.912  49.297  1.00  0.00     0.025 C 
BRANCH   9  11
HETATM   11  C3  UNL     1      20.761   2.742  50.635  1.00  0.00     0.314 C 
BRANCH  11  12
HETATM   12  N1  UNL     1      21.997   3.462  50.790  1.00  0.00     0.096 N 
HETATM   13  C4  UNL     1      22.131   4.585  49.918  1.00  0.00     0.299 C 
HETATM   14  C5  UNL     1      21.994   5.842  50.757  1.00  0.00     0.198 C 
HETATM   15  O1  UNL     1      23.148   5.933  51.526  1.00  0.00    -0.388 OA
HETATM   16  C6  UNL     1      23.349   4.819  52.322  1.00  0.00     0.198 C 
HETATM   17  C7  UNL     1      22.325   3.749  52.156  1.00  0.00     0.299 C 
ENDBRANCH  11  12
ENDBRANCH   9  11
ENDBRANCH   7   9
ENDBRANCH   1   7
BRANCH   5  18
HETATM   18  O3  UNL     1      24.944  -0.150  53.708  1.00  0.00    -0.347 OA
BRANCH  18  19
HETATM   19  C14 UNL     1      25.795   0.047  52.658  1.00  0.00     0.214 C 
BRANCH  19  20
HETATM   20  C15 UNL     1      27.139  -0.491  52.937  1.00  0.00    -0.034 A 
HETATM   21  C16 UNL     1      27.637  -1.767  52.863  1.00  0.00     0.009 A 
HETATM   22  C17 UNL     1      28.937  -2.075  53.184  1.00  0.00     0.001 A 
HETATM   23  C18 UNL     1      29.837  -1.119  53.605  1.00  0.00     0.000 A 
HETATM   24  C19 UNL     1      29.391   0.179  53.698  1.00  0.00     0.001 A 
HETATM   25  C20 UNL     1      28.083   0.454  53.368  1.00  0.00     0.009 A 
ENDBRANCH  19  20
ENDBRANCH  18  19
ENDBRANCH   5  18
TORSDOF 7
ENDMDL
MODEL 5
REMARK VINA RESULT:      -7.6      2.030      6.423
REMARK  7 active torsions:
REMARK  status: ('A' for Active; 'I' for Inactive)
REMARK    1  A    between atoms: C2_2  and  C3_3 
REMARK    2  A    between atoms: C2_2  and  C8_10 
REMARK    3  A    between atoms: C3_3  and  N1_4 
REMARK    4  A    between atoms: C8_10  and  C9_12 
REMARK    5  A    between atoms: C13_16  and  O3_17 
REMARK    6  A    between atoms: O3_17  and  C14_18 
REMARK    7  A    between atoms: C14_18  and  C15_19 
ROOT
HETATM    1  C9  UNL     1      24.187  -0.061  53.140  1.00  0.00     0.017 A 
HETATM    2  C10 UNL     1      22.922  -0.641  53.275  1.00  0.00     0.015 A 
HETATM    3  C11 UNL     1      21.765   0.040  52.882  1.00  0.00     0.004 A 
HETATM    4  C12 UNL     1      21.898   1.299  52.356  1.00  0.00     0.037 A 
HETATM    5  C13 UNL     1      23.094   1.943  52.187  1.00  0.00     0.070 A 
HETATM    6  C21 UNL     1      24.213   1.206  52.601  1.00  0.00     0.052 A 
ENDROOT
BRANCH   1   7
HETATM    7  C8  UNL     1      25.277  -0.904  53.595  1.00  0.00     0.189 C 
HETATM    8  O2  UNL     1      25.261  -1.242  54.814  1.00  0.00    -0.287 OA
BRANCH   7   9
HETATM    9  C2  UNL     1      26.411  -1.429  52.848  1.00  0.00     0.011 C 
HETATM   10  C1  UNL     1      26.327  -2.418  51.973  1.00  0.00     0.025 C 
BRANCH   9  11
HETATM   11  C3  UNL     1      27.756  -0.883  53.021  1.00  0.00     0.314 C 
BRANCH  11  12
HETATM   12  N1  UNL     1      27.790   0.370  53.726  1.00  0.00     0.096 N 
HETATM   13  C4  UNL     1      28.620   0.362  54.889  1.00  0.00     0.299 C 
HETATM   14  C5  UNL     1      29.853   1.192  54.583  1.00  0.00     0.198 C 
HETATM   15  O1  UNL     1      29.436   2.518  54.533  1.00  0.00    -0.388 OA
HETATM   16  C6  UNL     1      28.443   2.730  53.593  1.00  0.00     0.198 C 
HETATM   17  C7  UNL     1      28.001   1.503  52.874  1.00  0.00     0.299 C 
ENDBRANCH  11  12
ENDBRANCH   9  11
ENDBRANCH   7   9
ENDBRANCH   1   7
BRANCH   5  18
HETATM   18  O3  UNL     1      23.455   3.145  51.704  1.00  0.00    -0.347 OA
BRANCH  18  19
HETATM   19  C14 UNL     1      23.236   3.848  50.553  1.00  0.00     0.214 C 
BRANCH  19  20
HETATM   20  C15 UNL     1      24.499   4.320  49.954  1.00  0.00    -0.034 A 
HETATM   21  C16 UNL     1      24.838   5.520  49.386  1.00  0.00     0.009 A 
HETATM   22  C17 UNL     1      26.084   5.767  48.860  1.00  0.00     0.001 A 
HETATM   23  C18 UNL     1      27.084   4.818  48.867  1.00  0.00     0.000 A 
HETATM   24  C19 UNL     1      26.800   3.594  49.425  1.00  0.00     0.001 A 
HETATM   25  C20 UNL     1      25.542   3.380  49.943  1.00  0.00     0.009 A 
ENDBRANCH  19  20
ENDBRANCH  18  19
ENDBRANCH   5  18
TORSDOF 7
ENDMDL
MODEL 6
REMARK VINA RESULT:      -7.6      1.987      5.050
REMARK  7 active torsions:
REMARK  status: ('A' for Active; 'I' for Inactive)
REMARK    1  A    between atoms: C2_2  and  C3_3 
REMARK    2  A    between atoms: C2_2  and  C8_10 
REMARK    3  A    between atoms: C3_3  and  N1_4 
REMARK    4  A    between atoms: C8_10  and  C9_12 
REMARK    5  A    between atoms: C13_16  and  O3_17 
REMARK    6  A    between atoms: O3_17  and  C14_18 
REMARK    7  A    between atoms: C14_18  and  C15_19 
ROOT
HETATM    1  C9  UNL     1      21.869   0.816  53.095  1.00  0.00     0.017 A 
HETATM    2  C10 UNL     1      21.047   0.207  54.046  1.00  0.00     0.015 A 
HETATM    3  C11 UNL     1      21.549  -0.747  54.938  1.00  0.00     0.004 A 
HETATM    4  C12 UNL     1      22.878  -1.076  54.858  1.00  0.00     0.037 A 
HETATM    5  C13 UNL     1      23.755  -0.531  53.960  1.00  0.00     0.070 A 
HETATM    6  C21 UNL     1      23.188   0.417  53.097  1.00  0.00     0.052 A 
ENDROOT
BRANCH   1   7
HETATM    7  C8  UNL     1      21.188   1.782  52.252  1.00  0.00     0.189 C 
HETATM    8  O2  UNL     1      20.349   2.537  52.822  1.00  0.00    -0.287 OA
BRANCH   7   9
HETATM    9  C2  UNL     1      21.326   2.018  50.822  1.00  0.00     0.011 C 
HETATM   10  C1  UNL     1      21.183   1.081  49.900  1.00  0.00     0.025 C 
BRANCH   9  11
HETATM   11  C3  UNL     1      21.642   3.346  50.298  1.00  0.00     0.314 C 
BRANCH  11  12
HETATM   12  N1  UNL     1      22.815   3.939  50.881  1.00  0.00     0.096 N 
HETATM   13  C4  UNL     1      24.044   3.456  50.336  1.00  0.00     0.299 C 
HETATM   14  C5  UNL     1      24.643   4.564  49.490  1.00  0.00     0.198 C 
HETATM   15  O1  UNL     1      25.082   5.544  50.373  1.00  0.00    -0.388 OA
HETATM   16  C6  UNL     1      24.070   6.024  51.184  1.00  0.00     0.198 C 
HETATM   17  C7  UNL     1      22.748   5.368  50.977  1.00  0.00     0.299 C 
ENDBRANCH  11  12
ENDBRANCH   9  11
ENDBRANCH   7   9
ENDBRANCH   1   7
BRANCH   5  18
HETATM   18  O3  UNL     1      25.066  -0.696  53.708  1.00  0.00    -0.347 OA
BRANCH  18  19
HETATM   19  C14 UNL     1      25.838  -0.881  52.596  1.00  0.00     0.214 C 
BRANCH  19  20
HETATM   20  C15 UNL     1      27.273  -0.931  52.930  1.00  0.00    -0.034 A 
HETATM   21  C16 UNL     1      28.156  -1.978  52.974  1.00  0.00     0.009 A 
HETATM   22  C17 UNL     1      29.475  -1.823  53.329  1.00  0.00     0.001 A 
HETATM   23  C18 UNL     1      30.005  -0.596  53.667  1.00  0.00     0.000 A 
HETATM   24  C19 UNL     1      29.163   0.492  53.639  1.00  0.00     0.001 A 
HETATM   25  C20 UNL     1      27.848   0.301  53.279  1.00  0.00     0.009 A 
ENDBRANCH  19  20
ENDBRANCH  18  19
ENDBRANCH   5  18
TORSDOF 7
ENDMDL
MODEL 7
REMARK VINA RESULT:      -7.3      1.671      2.471
REMARK  7 active torsions:
REMARK  status: ('A' for Active; 'I' for Inactive)
REMARK    1  A    between atoms: C2_2  and  C3_3 
REMARK    2  A    between atoms: C2_2  and  C8_10 
REMARK    3  A    between atoms: C3_3  and  N1_4 
REMARK    4  A    between atoms: C8_10  and  C9_12 
REMARK    5  A    between atoms: C13_16  and  O3_17 
REMARK    6  A    between atoms: O3_17  and  C14_18 
REMARK    7  A    between atoms: C14_18  and  C15_19 
ROOT
HETATM    1  C9  UNL     1      22.045   3.461  51.538  1.00  0.00     0.017 A 
HETATM    2  C10 UNL     1      21.928   4.849  51.652  1.00  0.00     0.015 A 
HETATM    3  C11 UNL     1      23.014   5.692  51.394  1.00  0.00     0.004 A 
HETATM    4  C12 UNL     1      24.206   5.125  51.023  1.00  0.00     0.037 A 
HETATM    5  C13 UNL     1      24.409   3.778  50.885  1.00  0.00     0.070 A 
HETATM    6  C21 UNL     1      23.282   2.991  51.159  1.00  0.00     0.052 A 
ENDROOT
BRANCH   1   7
HETATM    7  C8  UNL     1      20.824   2.736  51.841  1.00  0.00     0.189 C 
HETATM    8  O2  UNL     1      20.062   3.249  52.711  1.00  0.00    -0.287 OA
BRANCH   7   9
HETATM    9  C2  UNL     1      20.332   1.484  51.284  1.00  0.00     0.011 C 
HETATM   10  C1  UNL     1      19.330   1.399  50.424  1.00  0.00     0.025 C 
BRANCH   9  11
HETATM   11  C3  UNL     1      20.932   0.201  51.649  1.00  0.00     0.314 C 
BRANCH  11  12
HETATM   12  N1  UNL     1      21.378   0.135  53.014  1.00  0.00     0.096 N 
HETATM   13  C4  UNL     1      20.415  -0.412  53.916  1.00  0.00     0.299 C 
HETATM   14  C5  UNL     1      20.895  -1.792  54.326  1.00  0.00     0.198 C 
HETATM   15  O1  UNL     1      21.993  -1.599  55.157  1.00  0.00    -0.388 OA
HETATM   16  C6  UNL     1      23.004  -0.877  54.547  1.00  0.00     0.198 C 
HETATM   17  C7  UNL     1      22.690  -0.424  53.163  1.00  0.00     0.299 C 
ENDBRANCH  11  12
ENDBRANCH   9  11
ENDBRANCH   7   9
ENDBRANCH   1   7
BRANCH   5  18
HETATM   18  O3  UNL     1      25.463   3.017  50.540  1.00  0.00    -0.347 OA
BRANCH  18  19
HETATM   19  C14 UNL     1      26.700   2.757  51.059  1.00  0.00     0.214 C 
BRANCH  19  20
HETATM   20  C15 UNL     1      26.637   1.763  52.147  1.00  0.00    -0.034 A 
HETATM   21  C16 UNL     1      26.616   1.912  53.509  1.00  0.00     0.009 A 
HETATM   22  C17 UNL     1      26.570   0.844  54.372  1.00  0.00     0.001 A 
HETATM   23  C18 UNL     1      26.541  -0.460  53.925  1.00  0.00     0.000 A 
HETATM   24  C19 UNL     1      26.560  -0.670  52.566  1.00  0.00     0.001 A 
HETATM   25  C20 UNL     1      26.606   0.423  51.730  1.00  0.00     0.009 A 
ENDBRANCH  19  20
ENDBRANCH  18  19
ENDBRANCH   5  18
TORSDOF 7
ENDMDL
MODEL 8
REMARK VINA RESULT:      -7.2      4.062      6.177
REMARK  7 active torsions:
REMARK  status: ('A' for Active; 'I' for Inactive)
REMARK    1  A    between atoms: C2_2  and  C3_3 
REMARK    2  A    between atoms: C2_2  and  C8_10 
REMARK    3  A    between atoms: C3_3  and  N1_4 
REMARK    4  A    between atoms: C8_10  and  C9_12 
REMARK    5  A    between atoms: C13_16  and  O3_17 
REMARK    6  A    between atoms: O3_17  and  C14_18 
REMARK    7  A    between atoms: C14_18  and  C15_19 
ROOT
HETATM    1  C9  UNL     1      25.811   4.437  49.351  1.00  0.00     0.017 A 
HETATM    2  C10 UNL     1      25.170   5.637  49.032  1.00  0.00     0.015 A 
HETATM    3  C11 UNL     1      25.868   6.703  48.455  1.00  0.00     0.004 A 
HETATM    4  C12 UNL     1      27.208   6.545  48.207  1.00  0.00     0.037 A 
HETATM    5  C13 UNL     1      27.915   5.407  48.486  1.00  0.00     0.070 A 
HETATM    6  C21 UNL     1      27.156   4.379  49.062  1.00  0.00     0.052 A 
ENDROOT
BRANCH   1   7
HETATM    7  C8  UNL     1      24.939   3.437  49.940  1.00  0.00     0.189 C 
HETATM    8  O2  UNL     1      24.170   2.820  49.148  1.00  0.00    -0.287 OA
BRANCH   7   9
HETATM    9  C2  UNL     1      24.813   3.028  51.331  1.00  0.00     0.011 C 
HETATM   10  C1  UNL     1      24.064   3.655  52.223  1.00  0.00     0.025 C 
BRANCH   9  11
HETATM   11  C3  UNL     1      25.528   1.862  51.850  1.00  0.00     0.314 C 
BRANCH  11  12
HETATM   12  N1  UNL     1      26.383   2.153  52.968  1.00  0.00     0.096 N 
HETATM   13  C4  UNL     1      26.156   1.321  54.107  1.00  0.00     0.299 C 
HETATM   14  C5  UNL     1      27.333   0.371  54.229  1.00  0.00     0.198 C 
HETATM   15  O1  UNL     1      28.419   1.135  54.640  1.00  0.00    -0.388 OA
HETATM   16  C6  UNL     1      28.701   2.174  53.770  1.00  0.00     0.198 C 
HETATM   17  C7  UNL     1      27.767   2.283  52.615  1.00  0.00     0.299 C 
ENDBRANCH  11  12
ENDBRANCH   9  11
ENDBRANCH   7   9
ENDBRANCH   1   7
BRANCH   5  18
HETATM   18  O3  UNL     1      29.199   5.037  48.331  1.00  0.00    -0.347 OA
BRANCH  18  19
HETATM   19  C14 UNL     1      30.413   5.664  48.354  1.00  0.00     0.214 C 
BRANCH  19  20
HETATM   20  C15 UNL     1      31.377   5.020  47.444  1.00  0.00    -0.034 A 
HETATM   21  C16 UNL     1      31.542   3.708  47.080  1.00  0.00     0.009 A 
HETATM   22  C17 UNL     1      32.526   3.296  46.214  1.00  0.00     0.001 A 
HETATM   23  C18 UNL     1      33.421   4.178  45.646  1.00  0.00     0.000 A 
HETATM   24  C19 UNL     1      33.302   5.508  45.975  1.00  0.00     0.001 A 
HETATM   25  C20 UNL     1      32.305   5.887  46.846  1.00  0.00     0.009 A 
ENDBRANCH  19  20
ENDBRANCH  18  19
ENDBRANCH   5  18
TORSDOF 7
ENDMDL
MODEL 9
REMARK VINA RESULT:      -7.1      2.354      6.754
REMARK  7 active torsions:
REMARK  status: ('A' for Active; 'I' for Inactive)
REMARK    1  A    between atoms: C2_2  and  C3_3 
REMARK    2  A    between atoms: C2_2  and  C8_10 
REMARK    3  A    between atoms: C3_3  and  N1_4 
REMARK    4  A    between atoms: C8_10  and  C9_12 
REMARK    5  A    between atoms: C13_16  and  O3_17 
REMARK    6  A    between atoms: O3_17  and  C14_18 
REMARK    7  A    between atoms: C14_18  and  C15_19 
ROOT
HETATM    1  C9  UNL     1      23.445   1.241  52.740  1.00  0.00     0.017 A 
HETATM    2  C10 UNL     1      23.610   0.042  53.439  1.00  0.00     0.015 A 
HETATM    3  C11 UNL     1      22.565  -0.880  53.555  1.00  0.00     0.004 A 
HETATM    4  C12 UNL     1      21.364  -0.582  52.963  1.00  0.00     0.037 A 
HETATM    5  C13 UNL     1      21.114   0.566  52.260  1.00  0.00     0.070 A 
HETATM    6  C21 UNL     1      22.203   1.446  52.182  1.00  0.00     0.052 A 
ENDROOT
BRANCH   1   7
HETATM    7  C8  UNL     1      24.629   2.081  52.715  1.00  0.00     0.189 C 
HETATM    8  O2  UNL     1      24.740   2.929  53.647  1.00  0.00    -0.287 OA
BRANCH   7   9
HETATM    9  C2  UNL     1      25.730   2.097  51.762  1.00  0.00     0.011 C 
HETATM   10  C1  UNL     1      25.942   3.070  50.891  1.00  0.00     0.025 C 
BRANCH   9  11
HETATM   11  C3  UNL     1      26.701   1.005  51.704  1.00  0.00     0.314 C 
BRANCH  11  12
HETATM   12  N1  UNL     1      27.016   0.436  52.986  1.00  0.00     0.096 N 
HETATM   13  C4  UNL     1      27.225  -0.977  52.962  1.00  0.00     0.299 C 
HETATM   14  C5  UNL     1      28.707  -1.230  53.161  1.00  0.00     0.198 C 
HETATM   15  O1  UNL     1      28.989  -0.918  54.486  1.00  0.00    -0.388 OA
HETATM   16  C6  UNL     1      28.655   0.385  54.811  1.00  0.00     0.198 C 
HETATM   17  C7  UNL     1      28.029   1.157  53.701  1.00  0.00     0.299 C 
ENDBRANCH  11  12
ENDBRANCH   9  11
ENDBRANCH   7   9
ENDBRANCH   1   7
BRANCH   5  18
HETATM   18  O3  UNL     1      20.043   1.056  51.611  1.00  0.00    -0.347 OA
BRANCH  18  19
HETATM   19  C14 UNL     1      19.576   1.033  50.328  1.00  0.00     0.214 C 
BRANCH  19  20
HETATM   20  C15 UNL     1      20.385   1.885  49.437  1.00  0.00    -0.034 A 
HETATM   21  C16 UNL     1      20.340   3.232  49.186  1.00  0.00     0.009 A 
HETATM   22  C17 UNL     1      21.184   3.850  48.294  1.00  0.00     0.001 A 
HETATM   23  C18 UNL     1      22.140   3.154  47.585  1.00  0.00     0.000 A 
HETATM   24  C19 UNL     1      22.231   1.798  47.797  1.00  0.00     0.001 A 
HETATM   25  C20 UNL     1      21.370   1.211  48.698  1.00  0.00     0.009 A 
ENDBRANCH  19  20
ENDBRANCH  18  19
ENDBRANCH   5  18
TORSDOF 7
ENDMDL
