MODEL 1
REMARK VINA RESULT:      -8.7      0.000      0.000
REMARK  7 active torsions:
REMARK  status: ('A' for Active; 'I' for Inactive)
REMARK    1  A    between atoms: O1_2  and  C2_3 
REMARK    2  A    between atoms: C6_9  and  N3_10 
REMARK    3  A    between atoms: N3_10  and  C7_11 
REMARK    4  A    between atoms: C15_21  and  C16_22 
REMARK    5  A    between atoms: C16_22  and  N4_23 
REMARK    6  A    between atoms: N4_23  and  C18_25 
REMARK    7  A    between atoms: C18_25  and  C20_27 
REMARK       I    between atoms: C20_27  and  N5_28 
ROOT
HETATM    1  C2  UNL     1      20.299  -0.492  53.260  1.00  0.00     0.078 A 
HETATM    2  C3  UNL     1      20.883  -0.981  54.435  1.00  0.00     0.070 A 
HETATM    3  C4  UNL     1      22.254  -0.985  54.599  1.00  0.00     0.074 A 
HETATM    4  N1  UNL     1      22.867  -1.455  55.697  1.00  0.00    -0.241 NA
HETATM    5  C5  UNL     1      24.226  -1.456  55.816  1.00  0.00     0.236 A 
HETATM    6  N2  UNL     1      24.996  -0.966  54.794  1.00  0.00    -0.224 NA
HETATM    7  C6  UNL     1      24.381  -0.491  53.682  1.00  0.00     0.142 A 
HETATM    8  C13 UNL     1      23.009  -0.490  53.563  1.00  0.00     0.039 A 
HETATM    9  C14 UNL     1      22.510   0.008  52.378  1.00  0.00     0.029 A 
HETATM   10  C15 UNL     1      21.139  -0.005  52.249  1.00  0.00     0.004 A 
ENDROOT
BRANCH   7  11
HETATM   11  N3  UNL     1      25.347  -0.048  52.737  1.00  0.00    -0.340 N 
HETATM   12  H6  UNL     1      25.084   0.387  51.835  1.00  0.00     0.167 HD
BRANCH  11  13
HETATM   13  C7  UNL     1      26.752  -0.203  53.052  1.00  0.00     0.035 A 
HETATM   14  C8  UNL     1      27.409  -1.391  52.826  1.00  0.00     0.032 A 
HETATM   15  C9  UNL     1      28.772  -1.519  53.115  1.00  0.00     0.046 A 
HETATM   16  C10 UNL     1      29.457  -0.423  53.637  1.00  0.00     0.138 A 
HETATM   17  F1  UNL     1      30.780  -0.559  53.912  1.00  0.00    -0.204 F 
HETATM   18  C11 UNL     1      28.807   0.798  53.875  1.00  0.00     0.074 A 
HETATM   19 CL1  UNL     1      29.700   2.176  54.534  1.00  0.00    -0.081 Cl
HETATM   20  C12 UNL     1      27.439   0.897  53.577  1.00  0.00     0.056 A 
ENDBRANCH  11  13
ENDBRANCH   7  11
BRANCH  10  21
HETATM   21  C16 UNL     1      20.403   0.470  51.077  1.00  0.00     0.314 C 
BRANCH  21  22
HETATM   22  N4  UNL     1      20.943   1.594  50.389  1.00  0.00     0.101 N 
HETATM   23  C17 UNL     1      20.974   1.452  48.954  1.00  0.00     0.311 C 
BRANCH  22  24
HETATM   24  C18 UNL     1      20.097   2.748  50.673  1.00  0.00     0.309 C 
HETATM   25  C19 UNL     1      19.575   3.403  49.421  1.00  0.00     0.053 C 
BRANCH  24  26
HETATM   26  C20 UNL     1      20.711   3.687  51.607  1.00  0.00     0.248 C 
HETATM   27  N5  UNL     1      21.588   4.746  51.964  1.00  0.00    -0.368 N 
HETATM   28  H20 UNL     1      22.543   4.288  52.082  1.00  0.00     0.159 HD
HETATM   29  H21 UNL     1      21.238   5.734  52.059  1.00  0.00     0.159 HD
HETATM   30  O2  UNL     1      20.201   3.465  52.756  1.00  0.00    -0.271 OA
ENDBRANCH  24  26
ENDBRANCH  22  24
ENDBRANCH  21  22
ENDBRANCH  10  21
BRANCH   1  31
HETATM   31  O1  UNL     1      18.916  -0.524  53.168  1.00  0.00    -0.355 OA
HETATM   32  C1  UNL     1      18.195  -1.713  53.412  1.00  0.00     0.210 C 
ENDBRANCH   1  31
TORSDOF 7
ENDMDL
MODEL 2
REMARK VINA RESULT:      -8.7      4.383      6.941
REMARK  7 active torsions:
REMARK  status: ('A' for Active; 'I' for Inactive)
REMARK    1  A    between atoms: O1_2  and  C2_3 
REMARK    2  A    between atoms: C6_9  and  N3_10 
REMARK    3  A    between atoms: N3_10  and  C7_11 
REMARK    4  A    between atoms: C15_21  and  C16_22 
REMARK    5  A    between atoms: C16_22  and  N4_23 
REMARK    6  A    between atoms: N4_23  and  C18_25 
REMARK    7  A    between atoms: C18_25  and  C20_27 
REMARK       I    between atoms: C20_27  and  N5_28 
ROOT
HETATM    1  C2  UNL     1      22.738   0.229  52.765  1.00  0.00     0.078 A 
HETATM    2  C3  UNL     1      21.593   0.924  52.357  1.00  0.00     0.070 A 
HETATM    3  C4  UNL     1      21.633   2.281  52.114  1.00  0.00     0.074 A 
HETATM    4  N1  UNL     1      20.563   2.999  51.735  1.00  0.00    -0.241 NA
HETATM    5  C5  UNL     1      20.640   4.343  51.519  1.00  0.00     0.236 A 
HETATM    6  N2  UNL     1      21.836   4.990  51.688  1.00  0.00    -0.224 NA
HETATM    7  C6  UNL     1      22.920   4.270  52.071  1.00  0.00     0.142 A 
HETATM    8  C13 UNL     1      22.842   2.913  52.290  1.00  0.00     0.039 A 
HETATM    9  C14 UNL     1      24.012   2.301  52.688  1.00  0.00     0.029 A 
HETATM   10  C15 UNL     1      23.933   0.946  52.922  1.00  0.00     0.004 A 
ENDROOT
BRANCH   7  11
HETATM   11  N3  UNL     1      24.052   5.120  52.209  1.00  0.00    -0.340 N 
HETATM   12  H6  UNL     1      24.421   5.410  53.131  1.00  0.00     0.167 HD
BRANCH  11  13
HETATM   13  C7  UNL     1      24.718   5.590  51.013  1.00  0.00     0.035 A 
HETATM   14  C8  UNL     1      25.349   4.719  50.155  1.00  0.00     0.032 A 
HETATM   15  C9  UNL     1      25.970   5.186  48.991  1.00  0.00     0.046 A 
HETATM   16  C10 UNL     1      25.941   6.552  48.712  1.00  0.00     0.138 A 
HETATM   17  F1  UNL     1      26.546   6.992  47.579  1.00  0.00    -0.204 F 
HETATM   18  C11 UNL     1      25.304   7.458  49.573  1.00  0.00     0.074 A 
HETATM   19 CL1  UNL     1      25.277   9.186  49.195  1.00  0.00    -0.081 Cl
HETATM   20  C12 UNL     1      24.690   6.962  50.734  1.00  0.00     0.056 A 
ENDBRANCH  11  13
ENDBRANCH   7  11
BRANCH  10  21
HETATM   21  C16 UNL     1      25.049   0.104  53.355  1.00  0.00     0.314 C 
BRANCH  21  22
HETATM   22  N4  UNL     1      26.126   0.755  54.022  1.00  0.00     0.101 N 
HETATM   23  C17 UNL     1      26.503   0.146  55.274  1.00  0.00     0.311 C 
BRANCH  22  24
HETATM   24  C18 UNL     1      27.299   0.688  53.158  1.00  0.00     0.309 C 
HETATM   25  C19 UNL     1      27.834  -0.713  53.020  1.00  0.00     0.053 C 
BRANCH  24  26
HETATM   26  C20 UNL     1      28.322   1.668  53.510  1.00  0.00     0.248 C 
HETATM   27  N5  UNL     1      29.341   2.211  54.336  1.00  0.00    -0.368 N 
HETATM   28  H20 UNL     1      28.825   2.747  55.099  1.00  0.00     0.159 HD
HETATM   29  H21 UNL     1      30.359   2.043  54.127  1.00  0.00     0.159 HD
HETATM   30  O2  UNL     1      28.343   2.543  52.581  1.00  0.00    -0.271 OA
ENDBRANCH  24  26
ENDBRANCH  22  24
ENDBRANCH  21  22
ENDBRANCH  10  21
BRANCH   1  31
HETATM   31  O1  UNL     1      22.618  -1.133  52.993  1.00  0.00    -0.355 OA
HETATM   32  C1  UNL     1      21.773  -1.632  54.008  1.00  0.00     0.210 C 
ENDBRANCH   1  31
TORSDOF 7
ENDMDL
MODEL 3
REMARK VINA RESULT:      -8.6      4.458      7.534
REMARK  7 active torsions:
REMARK  status: ('A' for Active; 'I' for Inactive)
REMARK    1  A    between atoms: O1_2  and  C2_3 
REMARK    2  A    between atoms: C6_9  and  N3_10 
REMARK    3  A    between atoms: N3_10  and  C7_11 
REMARK    4  A    between atoms: C15_21  and  C16_22 
REMARK    5  A    between atoms: C16_22  and  N4_23 
REMARK    6  A    between atoms: N4_23  and  C18_25 
REMARK    7  A    between atoms: C18_25  and  C20_27 
REMARK       I    between atoms: C20_27  and  N5_28 
ROOT
HETATM    1  C2  UNL     1      23.697   1.068  53.101  1.00  0.00     0.078 A 
HETATM    2  C3  UNL     1      22.490   1.398  52.472  1.00  0.00     0.070 A 
HETATM    3  C4  UNL     1      22.220   2.696  52.088  1.00  0.00     0.074 A 
HETATM    4  N1  UNL     1      21.075   3.070  51.495  1.00  0.00    -0.241 NA
HETATM    5  C5  UNL     1      20.838   4.366  51.143  1.00  0.00     0.236 A 
HETATM    6  N2  UNL     1      21.787   5.321  51.396  1.00  0.00    -0.224 NA
HETATM    7  C6  UNL     1      22.946   4.949  51.995  1.00  0.00     0.142 A 
HETATM    8  C13 UNL     1      23.185   3.640  52.350  1.00  0.00     0.039 A 
HETATM    9  C14 UNL     1      24.395   3.395  52.963  1.00  0.00     0.029 A 
HETATM   10  C15 UNL     1      24.629   2.090  53.334  1.00  0.00     0.004 A 
ENDROOT
BRANCH   7  11
HETATM   11  N3  UNL     1      23.788   6.079  52.185  1.00  0.00    -0.340 N 
HETATM   12  H6  UNL     1      23.976   6.482  53.120  1.00  0.00     0.167 HD
BRANCH  11  13
HETATM   13  C7  UNL     1      24.412   6.684  51.028  1.00  0.00     0.035 A 
HETATM   14  C8  UNL     1      24.066   7.947  50.605  1.00  0.00     0.032 A 
HETATM   15  C9  UNL     1      24.694   8.527  49.497  1.00  0.00     0.046 A 
HETATM   16  C10 UNL     1      25.679   7.805  48.825  1.00  0.00     0.138 A 
HETATM   17  F1  UNL     1      26.282   8.379  47.753  1.00  0.00    -0.204 F 
HETATM   18  C11 UNL     1      26.048   6.515  49.239  1.00  0.00     0.074 A 
HETATM   19 CL1  UNL     1      27.304   5.621  48.371  1.00  0.00    -0.081 Cl
HETATM   20  C12 UNL     1      25.400   5.958  50.352  1.00  0.00     0.056 A 
ENDBRANCH  11  13
ENDBRANCH   7  11
BRANCH  10  21
HETATM   21  C16 UNL     1      25.841   1.612  54.000  1.00  0.00     0.314 C 
BRANCH  21  22
HETATM   22  N4  UNL     1      26.909   1.180  53.162  1.00  0.00     0.101 N 
HETATM   23  C17 UNL     1      27.952   2.159  52.978  1.00  0.00     0.311 C 
BRANCH  22  24
HETATM   24  C18 UNL     1      27.535   0.020  53.788  1.00  0.00     0.309 C 
HETATM   25  C19 UNL     1      28.970   0.274  54.167  1.00  0.00     0.053 C 
BRANCH  24  26
HETATM   26  C20 UNL     1      27.343  -1.210  53.027  1.00  0.00     0.248 C 
HETATM   27  N5  UNL     1      27.458  -2.608  52.808  1.00  0.00    -0.368 N 
HETATM   28  H20 UNL     1      28.448  -2.752  52.441  1.00  0.00     0.159 HD
HETATM   29  H21 UNL     1      26.654  -3.258  53.007  1.00  0.00     0.159 HD
HETATM   30  O2  UNL     1      26.736  -0.896  51.948  1.00  0.00    -0.271 OA
ENDBRANCH  24  26
ENDBRANCH  22  24
ENDBRANCH  21  22
ENDBRANCH  10  21
BRANCH   1  31
HETATM   31  O1  UNL     1      23.894  -0.256  53.461  1.00  0.00    -0.355 OA
HETATM   32  C1  UNL     1      22.957  -0.942  54.264  1.00  0.00     0.210 C 
ENDBRANCH   1  31
TORSDOF 7
ENDMDL
MODEL 4
REMARK VINA RESULT:      -8.5      4.801      7.355
REMARK  7 active torsions:
REMARK  status: ('A' for Active; 'I' for Inactive)
REMARK    1  A    between atoms: O1_2  and  C2_3 
REMARK    2  A    between atoms: C6_9  and  N3_10 
REMARK    3  A    between atoms: N3_10  and  C7_11 
REMARK    4  A    between atoms: C15_21  and  C16_22 
REMARK    5  A    between atoms: C16_22  and  N4_23 
REMARK    6  A    between atoms: N4_23  and  C18_25 
REMARK    7  A    between atoms: C18_25  and  C20_27 
REMARK       I    between atoms: C20_27  and  N5_28 
ROOT
HETATM    1  C2  UNL     1      24.021   0.930  52.597  1.00  0.00     0.078 A 
HETATM    2  C3  UNL     1      22.999   1.143  51.664  1.00  0.00     0.070 A 
HETATM    3  C4  UNL     1      22.887   2.344  50.992  1.00  0.00     0.074 A 
HETATM    4  N1  UNL     1      21.919   2.606  50.099  1.00  0.00    -0.241 NA
HETATM    5  C5  UNL     1      21.832   3.811  49.467  1.00  0.00     0.236 A 
HETATM    6  N2  UNL     1      22.753   4.788  49.742  1.00  0.00    -0.224 NA
HETATM    7  C6  UNL     1      23.732   4.529  50.643  1.00  0.00     0.142 A 
HETATM    8  C13 UNL     1      23.819   3.311  51.282  1.00  0.00     0.039 A 
HETATM    9  C14 UNL     1      24.853   3.180  52.184  1.00  0.00     0.029 A 
HETATM   10  C15 UNL     1      24.933   1.969  52.836  1.00  0.00     0.004 A 
ENDROOT
BRANCH   7  11
HETATM   11  N3  UNL     1      24.570   5.667  50.802  1.00  0.00    -0.340 N 
HETATM   12  H6  UNL     1      24.391   6.395  51.514  1.00  0.00     0.167 HD
BRANCH  11  13
HETATM   13  C7  UNL     1      25.723   5.807  49.937  1.00  0.00     0.035 A 
HETATM   14  C8  UNL     1      26.408   4.708  49.473  1.00  0.00     0.032 A 
HETATM   15  C9  UNL     1      27.508   4.859  48.620  1.00  0.00     0.046 A 
HETATM   16  C10 UNL     1      27.900   6.144  48.246  1.00  0.00     0.138 A 
HETATM   17  F1  UNL     1      28.967   6.277  47.417  1.00  0.00    -0.204 F 
HETATM   18  C11 UNL     1      27.217   7.279  48.708  1.00  0.00     0.074 A 
HETATM   19 CL1  UNL     1      27.733   8.898  48.217  1.00  0.00    -0.081 Cl
HETATM   20  C12 UNL     1      26.118   7.097  49.563  1.00  0.00     0.056 A 
ENDBRANCH  11  13
ENDBRANCH   7  11
BRANCH  10  21
HETATM   21  C16 UNL     1      25.945   1.619  53.833  1.00  0.00     0.314 C 
BRANCH  21  22
HETATM   22  N4  UNL     1      27.228   1.243  53.344  1.00  0.00     0.101 N 
HETATM   23  C17 UNL     1      28.265   2.213  53.592  1.00  0.00     0.311 C 
BRANCH  22  24
HETATM   24  C18 UNL     1      27.633   0.019  54.028  1.00  0.00     0.309 C 
HETATM   25  C19 UNL     1      29.019   0.116  54.610  1.00  0.00     0.053 C 
BRANCH  24  26
HETATM   26  C20 UNL     1      27.422  -1.179  53.223  1.00  0.00     0.248 C 
HETATM   27  N5  UNL     1      26.674  -2.025  52.362  1.00  0.00    -0.368 N 
HETATM   28  H20 UNL     1      26.016  -2.564  53.004  1.00  0.00     0.159 HD
HETATM   29  H21 UNL     1      26.835  -2.023  51.322  1.00  0.00     0.159 HD
HETATM   30  O2  UNL     1      28.479  -1.890  53.318  1.00  0.00    -0.271 OA
ENDBRANCH  24  26
ENDBRANCH  22  24
ENDBRANCH  21  22
ENDBRANCH  10  21
BRANCH   1  31
HETATM   31  O1  UNL     1      24.067  -0.301  53.233  1.00  0.00    -0.355 OA
HETATM   32  C1  UNL     1      22.940  -0.814  53.911  1.00  0.00     0.210 C 
ENDBRANCH   1  31
TORSDOF 7
ENDMDL
MODEL 5
REMARK VINA RESULT:      -8.4      4.554      7.611
REMARK  7 active torsions:
REMARK  status: ('A' for Active; 'I' for Inactive)
REMARK    1  A    between atoms: O1_2  and  C2_3 
REMARK    2  A    between atoms: C6_9  and  N3_10 
REMARK    3  A    between atoms: N3_10  and  C7_11 
REMARK    4  A    between atoms: C15_21  and  C16_22 
REMARK    5  A    between atoms: C16_22  and  N4_23 
REMARK    6  A    between atoms: N4_23  and  C18_25 
REMARK    7  A    between atoms: C18_25  and  C20_27 
REMARK       I    between atoms: C20_27  and  N5_28 
ROOT
HETATM    1  C2  UNL     1      24.260  -0.121  53.751  1.00  0.00     0.078 A 
HETATM    2  C3  UNL     1      23.019  -0.129  53.101  1.00  0.00     0.070 A 
HETATM    3  C4  UNL     1      22.790   0.664  51.995  1.00  0.00     0.074 A 
HETATM    4  N1  UNL     1      21.617   0.706  51.344  1.00  0.00    -0.241 NA
HETATM    5  C5  UNL     1      21.424   1.514  50.262  1.00  0.00     0.236 A 
HETATM    6  N2  UNL     1      22.449   2.308  49.818  1.00  0.00    -0.224 NA
HETATM    7  C6  UNL     1      23.636   2.269  50.473  1.00  0.00     0.142 A 
HETATM    8  C13 UNL     1      23.830   1.453  51.565  1.00  0.00     0.039 A 
HETATM    9  C14 UNL     1      25.078   1.516  52.148  1.00  0.00     0.029 A 
HETATM   10  C15 UNL     1      25.270   0.713  53.250  1.00  0.00     0.004 A 
ENDROOT
BRANCH   7  11
HETATM   11  N3  UNL     1      24.559   3.171  49.875  1.00  0.00    -0.340 N 
HETATM   12  H6  UNL     1      25.411   2.851  49.383  1.00  0.00     0.167 HD
BRANCH  11  13
HETATM   13  C7  UNL     1      24.291   4.592  49.950  1.00  0.00     0.035 A 
HETATM   14  C8  UNL     1      24.056   5.214  51.155  1.00  0.00     0.032 A 
HETATM   15  C9  UNL     1      23.820   6.592  51.214  1.00  0.00     0.046 A 
HETATM   16  C10 UNL     1      23.827   7.329  50.030  1.00  0.00     0.138 A 
HETATM   17  F1  UNL     1      23.599   8.665  50.100  1.00  0.00    -0.204 F 
HETATM   18  C11 UNL     1      24.064   6.716  48.790  1.00  0.00     0.074 A 
HETATM   19 CL1  UNL     1      24.071   7.674  47.303  1.00  0.00    -0.081 Cl
HETATM   20  C12 UNL     1      24.296   5.332  48.761  1.00  0.00     0.056 A 
ENDBRANCH  11  13
ENDBRANCH   7  11
BRANCH  10  21
HETATM   21  C16 UNL     1      26.510   0.629  54.021  1.00  0.00     0.314 C 
BRANCH  21  22
HETATM   22  N4  UNL     1      27.729   0.660  53.285  1.00  0.00     0.101 N 
HETATM   23  C17 UNL     1      28.501   1.864  53.465  1.00  0.00     0.311 C 
BRANCH  22  24
HETATM   24  C18 UNL     1      28.566  -0.442  53.749  1.00  0.00     0.309 C 
HETATM   25  C19 UNL     1      30.034  -0.181  53.535  1.00  0.00     0.053 C 
BRANCH  24  26
HETATM   26  C20 UNL     1      28.127  -1.740  53.247  1.00  0.00     0.248 C 
HETATM   27  N5  UNL     1      27.194  -2.633  52.656  1.00  0.00    -0.368 N 
HETATM   28  H20 UNL     1      26.550  -2.928  53.451  1.00  0.00     0.159 HD
HETATM   29  H21 UNL     1      27.242  -2.870  51.631  1.00  0.00     0.159 HD
HETATM   30  O2  UNL     1      29.095  -2.557  53.413  1.00  0.00    -0.271 OA
ENDBRANCH  24  26
ENDBRANCH  22  24
ENDBRANCH  21  22
ENDBRANCH  10  21
BRANCH   1  31
HETATM   31  O1  UNL     1      24.412  -0.943  54.857  1.00  0.00    -0.355 OA
HETATM   32  C1  UNL     1      23.291  -1.453  55.547  1.00  0.00     0.210 C 
ENDBRANCH   1  31
TORSDOF 7
ENDMDL
MODEL 6
REMARK VINA RESULT:      -8.4      3.927      5.224
REMARK  7 active torsions:
REMARK  status: ('A' for Active; 'I' for Inactive)
REMARK    1  A    between atoms: O1_2  and  C2_3 
REMARK    2  A    between atoms: C6_9  and  N3_10 
REMARK    3  A    between atoms: N3_10  and  C7_11 
REMARK    4  A    between atoms: C15_21  and  C16_22 
REMARK    5  A    between atoms: C16_22  and  N4_23 
REMARK    6  A    between atoms: N4_23  and  C18_25 
REMARK    7  A    between atoms: C18_25  and  C20_27 
REMARK       I    between atoms: C20_27  and  N5_28 
ROOT
HETATM    1  C2  UNL     1      23.244   3.507  49.024  1.00  0.00     0.078 A 
HETATM    2  C3  UNL     1      22.580   2.457  49.670  1.00  0.00     0.070 A 
HETATM    3  C4  UNL     1      23.050   1.945  50.862  1.00  0.00     0.074 A 
HETATM    4  N1  UNL     1      22.462   0.930  51.517  1.00  0.00    -0.241 NA
HETATM    5  C5  UNL     1      22.965   0.441  52.686  1.00  0.00     0.236 A 
HETATM    6  N2  UNL     1      24.101   0.993  53.218  1.00  0.00    -0.224 NA
HETATM    7  C6  UNL     1      24.700   2.017  52.561  1.00  0.00     0.142 A 
HETATM    8  C13 UNL     1      24.191   2.511  51.380  1.00  0.00     0.039 A 
HETATM    9  C14 UNL     1      24.901   3.545  50.806  1.00  0.00     0.029 A 
HETATM   10  C15 UNL     1      24.403   4.029  49.617  1.00  0.00     0.004 A 
ENDROOT
BRANCH   7  11
HETATM   11  N3  UNL     1      25.866   2.436  53.259  1.00  0.00    -0.340 N 
HETATM   12  H6  UNL     1      25.936   3.359  53.721  1.00  0.00     0.167 HD
BRANCH  11  13
HETATM   13  C7  UNL     1      26.995   1.532  53.333  1.00  0.00     0.035 A 
HETATM   14  C8  UNL     1      28.236   1.968  53.738  1.00  0.00     0.032 A 
HETATM   15  C9  UNL     1      29.312   1.078  53.826  1.00  0.00     0.046 A 
HETATM   16  C10 UNL     1      29.109  -0.261  53.495  1.00  0.00     0.138 A 
HETATM   17  F1  UNL     1      30.161  -1.115  53.586  1.00  0.00    -0.204 F 
HETATM   18  C11 UNL     1      27.852  -0.727  53.079  1.00  0.00     0.074 A 
HETATM   19 CL1  UNL     1      27.619  -2.433  52.669  1.00  0.00    -0.081 Cl
HETATM   20  C12 UNL     1      26.791   0.188  53.000  1.00  0.00     0.056 A 
ENDBRANCH  11  13
ENDBRANCH   7  11
BRANCH  10  21
HETATM   21  C16 UNL     1      24.999   5.116  48.839  1.00  0.00     0.314 C 
BRANCH  21  22
HETATM   22  N4  UNL     1      26.090   5.811  49.435  1.00  0.00     0.101 N 
HETATM   23  C17 UNL     1      27.254   5.924  48.591  1.00  0.00     0.311 C 
BRANCH  22  24
HETATM   24  C18 UNL     1      25.654   7.173  49.726  1.00  0.00     0.309 C 
HETATM   25  C19 UNL     1      26.802   8.147  49.773  1.00  0.00     0.053 C 
BRANCH  24  26
HETATM   26  C20 UNL     1      24.775   7.252  50.888  1.00  0.00     0.248 C 
HETATM   27  N5  UNL     1      24.353   6.902  52.198  1.00  0.00    -0.368 N 
HETATM   28  H20 UNL     1      23.813   5.991  52.081  1.00  0.00     0.159 HD
HETATM   29  H21 UNL     1      24.592   7.505  53.027  1.00  0.00     0.159 HD
HETATM   30  O2  UNL     1      23.864   8.104  50.615  1.00  0.00    -0.271 OA
ENDBRANCH  24  26
ENDBRANCH  22  24
ENDBRANCH  21  22
ENDBRANCH  10  21
BRANCH   1  31
HETATM   31  O1  UNL     1      22.713   3.966  47.828  1.00  0.00    -0.355 OA
HETATM   32  C1  UNL     1      21.785   3.193  47.098  1.00  0.00     0.210 C 
ENDBRANCH   1  31
TORSDOF 7
ENDMDL
MODEL 7
REMARK VINA RESULT:      -8.0      4.247      5.682
REMARK  7 active torsions:
REMARK  status: ('A' for Active; 'I' for Inactive)
REMARK    1  A    between atoms: O1_2  and  C2_3 
REMARK    2  A    between atoms: C6_9  and  N3_10 
REMARK    3  A    between atoms: N3_10  and  C7_11 
REMARK    4  A    between atoms: C15_21  and  C16_22 
REMARK    5  A    between atoms: C16_22  and  N4_23 
REMARK    6  A    between atoms: N4_23  and  C18_25 
REMARK    7  A    between atoms: C18_25  and  C20_27 
REMARK       I    between atoms: C20_27  and  N5_28 
ROOT
HETATM    1  C2  UNL     1      23.030   0.086  52.922  1.00  0.00     0.078 A 
HETATM    2  C3  UNL     1      24.323   0.232  53.437  1.00  0.00     0.070 A 
HETATM    3  C4  UNL     1      25.247   1.050  52.820  1.00  0.00     0.074 A 
HETATM    4  N1  UNL     1      26.504   1.215  53.263  1.00  0.00    -0.241 NA
HETATM    5  C5  UNL     1      27.394   2.021  52.616  1.00  0.00     0.236 A 
HETATM    6  N2  UNL     1      27.005   2.688  51.484  1.00  0.00    -0.224 NA
HETATM    7  C6  UNL     1      25.737   2.525  51.032  1.00  0.00     0.142 A 
HETATM    8  C13 UNL     1      24.839   1.710  51.685  1.00  0.00     0.039 A 
HETATM    9  C14 UNL     1      23.586   1.620  51.117  1.00  0.00     0.029 A 
HETATM   10  C15 UNL     1      22.691   0.794  51.759  1.00  0.00     0.004 A 
ENDROOT
BRANCH   7  11
HETATM   11  N3  UNL     1      25.536   3.280  49.844  1.00  0.00    -0.340 N 
HETATM   12  H6  UNL     1      25.435   2.838  48.914  1.00  0.00     0.167 HD
BRANCH  11  13
HETATM   13  C7  UNL     1      25.462   4.723  49.941  1.00  0.00     0.035 A 
HETATM   14  C8  UNL     1      24.578   5.339  50.796  1.00  0.00     0.032 A 
HETATM   15  C9  UNL     1      24.534   6.735  50.895  1.00  0.00     0.046 A 
HETATM   16  C10 UNL     1      25.402   7.494  50.112  1.00  0.00     0.138 A 
HETATM   17  F1  UNL     1      25.351   8.847  50.218  1.00  0.00    -0.204 F 
HETATM   18  C11 UNL     1      26.312   6.887  49.233  1.00  0.00     0.074 A 
HETATM   19 CL1  UNL     1      27.406   7.873  48.253  1.00  0.00    -0.081 Cl
HETATM   20  C12 UNL     1      26.333   5.485  49.154  1.00  0.00     0.056 A 
ENDBRANCH  11  13
ENDBRANCH   7  11
BRANCH  10  21
HETATM   21  C16 UNL     1      21.315   0.550  51.326  1.00  0.00     0.314 C 
BRANCH  21  22
HETATM   22  N4  UNL     1      20.282   1.181  52.076  1.00  0.00     0.101 N 
HETATM   23  C17 UNL     1      20.078   2.571  51.751  1.00  0.00     0.311 C 
BRANCH  22  24
HETATM   24  C18 UNL     1      19.027   0.497  51.782  1.00  0.00     0.309 C 
HETATM   25  C19 UNL     1      17.895   1.457  51.524  1.00  0.00     0.053 C 
BRANCH  24  26
HETATM   26  C20 UNL     1      18.701  -0.538  52.757  1.00  0.00     0.248 C 
HETATM   27  N5  UNL     1      18.949  -1.335  53.906  1.00  0.00    -0.368 N 
HETATM   28  H20 UNL     1      19.597  -2.112  53.571  1.00  0.00     0.159 HD
HETATM   29  H21 UNL     1      18.520  -1.097  54.837  1.00  0.00     0.159 HD
HETATM   30  O2  UNL     1      17.566  -1.021  52.431  1.00  0.00    -0.271 OA
ENDBRANCH  24  26
ENDBRANCH  22  24
ENDBRANCH  21  22
ENDBRANCH  10  21
BRANCH   1  31
HETATM   31  O1  UNL     1      22.159  -0.756  53.596  1.00  0.00    -0.355 OA
HETATM   32  C1  UNL     1      22.407  -1.146  54.930  1.00  0.00     0.210 C 
ENDBRANCH   1  31
TORSDOF 7
ENDMDL
MODEL 8
REMARK VINA RESULT:      -7.9      5.212      6.885
REMARK  7 active torsions:
REMARK  status: ('A' for Active; 'I' for Inactive)
REMARK    1  A    between atoms: O1_2  and  C2_3 
REMARK    2  A    between atoms: C6_9  and  N3_10 
REMARK    3  A    between atoms: N3_10  and  C7_11 
REMARK    4  A    between atoms: C15_21  and  C16_22 
REMARK    5  A    between atoms: C16_22  and  N4_23 
REMARK    6  A    between atoms: N4_23  and  C18_25 
REMARK    7  A    between atoms: C18_25  and  C20_27 
REMARK       I    between atoms: C20_27  and  N5_28 
ROOT
HETATM    1  C2  UNL     1      23.940   6.672  50.695  1.00  0.00     0.078 A 
HETATM    2  C3  UNL     1      22.979   5.861  51.311  1.00  0.00     0.070 A 
HETATM    3  C4  UNL     1      23.200   4.511  51.497  1.00  0.00     0.074 A 
HETATM    4  N1  UNL     1      22.308   3.686  52.068  1.00  0.00    -0.241 NA
HETATM    5  C5  UNL     1      22.557   2.354  52.220  1.00  0.00     0.236 A 
HETATM    6  N2  UNL     1      23.746   1.832  51.784  1.00  0.00    -0.224 NA
HETATM    7  C6  UNL     1      24.651   2.662  51.206  1.00  0.00     0.142 A 
HETATM    8  C13 UNL     1      24.399   4.007  51.052  1.00  0.00     0.039 A 
HETATM    9  C14 UNL     1      25.394   4.737  50.438  1.00  0.00     0.029 A 
HETATM   10  C15 UNL     1      25.138   6.080  50.268  1.00  0.00     0.004 A 
ENDROOT
BRANCH   7  11
HETATM   11  N3  UNL     1      25.805   1.932  50.808  1.00  0.00    -0.340 N 
HETATM   12  H6  UNL     1      26.076   1.818  49.816  1.00  0.00     0.167 HD
BRANCH  11  13
HETATM   13  C7  UNL     1      26.635   1.331  51.831  1.00  0.00     0.035 A 
HETATM   14  C8  UNL     1      27.298   2.101  52.759  1.00  0.00     0.032 A 
HETATM   15  C9  UNL     1      28.079   1.505  53.755  1.00  0.00     0.046 A 
HETATM   16  C10 UNL     1      28.178   0.114  53.793  1.00  0.00     0.138 A 
HETATM   17  F1  UNL     1      28.938  -0.452  54.765  1.00  0.00    -0.204 F 
HETATM   18  C11 UNL     1      27.511  -0.690  52.856  1.00  0.00     0.074 A 
HETATM   19 CL1  UNL     1      27.649  -2.452  52.929  1.00  0.00    -0.081 Cl
HETATM   20  C12 UNL     1      26.735  -0.065  51.868  1.00  0.00     0.056 A 
ENDBRANCH  11  13
ENDBRANCH   7  11
BRANCH  10  21
HETATM   21  C16 UNL     1      26.051   7.034  49.639  1.00  0.00     0.314 C 
BRANCH  21  22
HETATM   22  N4  UNL     1      26.282   6.880  48.242  1.00  0.00     0.101 N 
HETATM   23  C17 UNL     1      25.759   7.953  47.432  1.00  0.00     0.311 C 
BRANCH  22  24
HETATM   24  C18 UNL     1      27.724   6.858  48.021  1.00  0.00     0.309 C 
HETATM   25  C19 UNL     1      28.340   5.529  48.372  1.00  0.00     0.053 C 
BRANCH  24  26
HETATM   26  C20 UNL     1      28.410   7.995  48.627  1.00  0.00     0.248 C 
HETATM   27  N5  UNL     1      28.692   8.904  49.681  1.00  0.00    -0.368 N 
HETATM   28  H20 UNL     1      27.914   9.630  49.638  1.00  0.00     0.159 HD
HETATM   29  H21 UNL     1      29.531   8.772  50.303  1.00  0.00     0.159 HD
HETATM   30  O2  UNL     1      29.214   8.461  47.751  1.00  0.00    -0.271 OA
ENDBRANCH  24  26
ENDBRANCH  22  24
ENDBRANCH  21  22
ENDBRANCH  10  21
BRANCH   1  31
HETATM   31  O1  UNL     1      23.644   8.017  50.541  1.00  0.00    -0.355 OA
HETATM   32  C1  UNL     1      22.602   8.442  49.688  1.00  0.00     0.210 C 
ENDBRANCH   1  31
TORSDOF 7
ENDMDL
MODEL 9
REMARK VINA RESULT:      -7.9      3.430      4.037
REMARK  7 active torsions:
REMARK  status: ('A' for Active; 'I' for Inactive)
REMARK    1  A    between atoms: O1_2  and  C2_3 
REMARK    2  A    between atoms: C6_9  and  N3_10 
REMARK    3  A    between atoms: N3_10  and  C7_11 
REMARK    4  A    between atoms: C15_21  and  C16_22 
REMARK    5  A    between atoms: C16_22  and  N4_23 
REMARK    6  A    between atoms: N4_23  and  C18_25 
REMARK    7  A    between atoms: C18_25  and  C20_27 
REMARK       I    between atoms: C20_27  and  N5_28 
ROOT
HETATM    1  C2  UNL     1      19.740  -0.731  53.330  1.00  0.00     0.078 A 
HETATM    2  C3  UNL     1      20.540  -1.220  54.370  1.00  0.00     0.070 A 
HETATM    3  C4  UNL     1      21.903  -1.001  54.382  1.00  0.00     0.074 A 
HETATM    4  N1  UNL     1      22.719  -1.458  55.346  1.00  0.00    -0.241 NA
HETATM    5  C5  UNL     1      24.063  -1.233  55.316  1.00  0.00     0.236 A 
HETATM    6  N2  UNL     1      24.608  -0.521  54.280  1.00  0.00    -0.224 NA
HETATM    7  C6  UNL     1      23.789  -0.056  53.304  1.00  0.00     0.142 A 
HETATM    8  C13 UNL     1      22.430  -0.284  53.334  1.00  0.00     0.039 A 
HETATM    9  C14 UNL     1      21.711   0.230  52.276  1.00  0.00     0.029 A 
HETATM   10  C15 UNL     1      20.356  -0.010  52.296  1.00  0.00     0.004 A 
ENDROOT
BRANCH   7  11
HETATM   11  N3  UNL     1      24.542   0.638  52.317  1.00  0.00    -0.340 N 
HETATM   12  H6  UNL     1      25.273   0.176  51.749  1.00  0.00     0.167 HD
BRANCH  11  13
HETATM   13  C7  UNL     1      24.269   2.042  52.093  1.00  0.00     0.035 A 
HETATM   14  C8  UNL     1      24.106   2.916  53.143  1.00  0.00     0.032 A 
HETATM   15  C9  UNL     1      23.865   4.275  52.910  1.00  0.00     0.046 A 
HETATM   16  C10 UNL     1      23.790   4.732  51.595  1.00  0.00     0.138 A 
HETATM   17  F1  UNL     1      23.557   6.052  51.383  1.00  0.00    -0.204 F 
HETATM   18  C11 UNL     1      23.952   3.857  50.509  1.00  0.00     0.074 A 
HETATM   19 CL1  UNL     1      23.856   4.463  48.849  1.00  0.00    -0.081 Cl
HETATM   20  C12 UNL     1      24.192   2.500  50.772  1.00  0.00     0.056 A 
ENDBRANCH  11  13
ENDBRANCH   7  11
BRANCH  10  21
HETATM   21  C16 UNL     1      19.409   0.439  51.275  1.00  0.00     0.314 C 
BRANCH  21  22
HETATM   22  N4  UNL     1      19.234   1.845  51.132  1.00  0.00     0.101 N 
HETATM   23  C17 UNL     1      19.853   2.404  49.956  1.00  0.00     0.311 C 
BRANCH  22  24
HETATM   24  C18 UNL     1      17.804   2.113  51.016  1.00  0.00     0.309 C 
HETATM   25  C19 UNL     1      17.164   1.343  49.891  1.00  0.00     0.053 C 
BRANCH  24  26
HETATM   26  C20 UNL     1      17.493   3.538  50.996  1.00  0.00     0.248 C 
HETATM   27  N5  UNL     1      17.292   4.794  50.364  1.00  0.00    -0.368 N 
HETATM   28  H20 UNL     1      18.270   5.193  50.222  1.00  0.00     0.159 HD
HETATM   29  H21 UNL     1      16.324   5.142  50.139  1.00  0.00     0.159 HD
HETATM   30  O2  UNL     1      17.268   3.893  52.202  1.00  0.00    -0.271 OA
ENDBRANCH  24  26
ENDBRANCH  22  24
ENDBRANCH  21  22
ENDBRANCH  10  21
BRANCH   1  31
HETATM   31  O1  UNL     1      18.380  -0.996  53.385  1.00  0.00    -0.355 OA
HETATM   32  C1  UNL     1      17.899  -2.310  53.572  1.00  0.00     0.210 C 
ENDBRANCH   1  31
TORSDOF 7
ENDMDL
