MODEL 1
REMARK VINA RESULT:      -6.6      0.000      0.000
REMARK  7 active torsions:
REMARK  status: ('A' for Active; 'I' for Inactive)
REMARK    1  A    between atoms: C2_2  and  C3_3 
REMARK    2  A    between atoms: C3_3  and  C4_4 
REMARK    3  A    between atoms: C4_4  and  C5_5 
REMARK    4  A    between atoms: C8_8  and  C9_9 
REMARK    5  A    between atoms: C10_12  and  S1_13 
REMARK    6  A    between atoms: S1_13  and  C11_14 
REMARK    7  A    between atoms: C11_14  and  C12_15 
ROOT
HETATM    1  C9  UNL     1      25.316  -0.676  53.854  1.00  0.00     0.178 A 
HETATM    2  N1  UNL     1      25.354  -1.038  55.148  1.00  0.00    -0.125 NA
HETATM    3  N2  UNL     1      24.144  -1.283  55.599  1.00  0.00    -0.114 NA
HETATM    4  C10 UNL     1      23.301  -1.075  54.573  1.00  0.00     0.231 A 
HETATM    5  O1  UNL     1      24.043  -0.716  53.556  1.00  0.00    -0.268 OA
ENDROOT
BRANCH   1   6
HETATM    6  C8  UNL     1      26.375  -0.294  52.864  1.00  0.00     0.094 A 
HETATM    7  C5  UNL     1      26.570   1.152  52.622  1.00  0.00     0.023 A 
HETATM    8  C6  UNL     1      27.926   0.964  53.118  1.00  0.00    -0.024 A 
HETATM    9  C7  UNL     1      27.738  -0.319  53.329  1.00  0.00    -0.017 A 
BRANCH   7  10
HETATM   10  C4  UNL     1      25.743   2.104  53.400  1.00  0.00     0.009 C 
BRANCH  10  11
HETATM   11  C3  UNL     1      24.585   2.666  52.655  1.00  0.00     0.000 C 
BRANCH  11  12
HETATM   12  C2  UNL     1      24.300   2.136  51.296  1.00  0.00    -0.005 C 
HETATM   13  C1  UNL     1      24.412   3.149  50.186  1.00  0.00     0.005 C 
ENDBRANCH  11  12
ENDBRANCH  10  11
ENDBRANCH   7  10
ENDBRANCH   1   6
BRANCH   4  14
HETATM   14  S1  UNL     1      21.519  -1.215  54.456  1.00  0.00    -0.078 SA
BRANCH  14  15
HETATM   15  C11 UNL     1      20.755   0.428  54.304  1.00  0.00     0.121 C 
BRANCH  15  16
HETATM   16  C12 UNL     1      20.782   0.931  52.905  1.00  0.00    -0.049 A 
HETATM   17  C13 UNL     1      20.542   2.278  52.681  1.00  0.00     0.008 A 
HETATM   18  C14 UNL     1      20.569   2.742  51.362  1.00  0.00     0.001 A 
HETATM   19  C15 UNL     1      20.817   1.950  50.274  1.00  0.00     0.000 A 
HETATM   20  C16 UNL     1      21.052   0.605  50.543  1.00  0.00     0.001 A 
HETATM   21  C17 UNL     1      21.039   0.084  51.836  1.00  0.00     0.008 A 
ENDBRANCH  15  16
ENDBRANCH  14  15
ENDBRANCH   4  14
TORSDOF 7
ENDMDL
MODEL 2
REMARK VINA RESULT:      -6.5      2.647      6.584
REMARK  7 active torsions:
REMARK  status: ('A' for Active; 'I' for Inactive)
REMARK    1  A    between atoms: C2_2  and  C3_3 
REMARK    2  A    between atoms: C3_3  and  C4_4 
REMARK    3  A    between atoms: C4_4  and  C5_5 
REMARK    4  A    between atoms: C8_8  and  C9_9 
REMARK    5  A    between atoms: C10_12  and  S1_13 
REMARK    6  A    between atoms: S1_13  and  C11_14 
REMARK    7  A    between atoms: C11_14  and  C12_15 
ROOT
HETATM    1  C9  UNL     1      22.634   1.518  51.310  1.00  0.00     0.178 A 
HETATM    2  N1  UNL     1      22.617   2.839  51.553  1.00  0.00    -0.125 NA
HETATM    3  N2  UNL     1      23.838   3.301  51.709  1.00  0.00    -0.114 NA
HETATM    4  C10 UNL     1      24.667   2.253  51.565  1.00  0.00     0.231 A 
HETATM    5  O1  UNL     1      23.906   1.214  51.328  1.00  0.00    -0.268 OA
ENDROOT
BRANCH   1   6
HETATM    6  C8  UNL     1      21.557   0.507  51.060  1.00  0.00     0.094 A 
HETATM    7  C5  UNL     1      20.710   0.135  52.215  1.00  0.00     0.023 A 
HETATM    8  C6  UNL     1      19.587   0.658  51.450  1.00  0.00    -0.024 A 
HETATM    9  C7  UNL     1      20.351   0.984  50.432  1.00  0.00    -0.017 A 
BRANCH   7  10
HETATM   10  C4  UNL     1      20.961   0.815  53.507  1.00  0.00     0.009 C 
BRANCH  10  11
HETATM   11  C3  UNL     1      21.122  -0.103  54.666  1.00  0.00     0.000 C 
BRANCH  11  12
HETATM   12  C2  UNL     1      22.135  -1.186  54.568  1.00  0.00    -0.005 C 
HETATM   13  C1  UNL     1      23.534  -0.717  54.256  1.00  0.00     0.005 C 
ENDBRANCH  11  12
ENDBRANCH  10  11
ENDBRANCH   7  10
ENDBRANCH   1   6
BRANCH   4  14
HETATM   14  S1  UNL     1      26.452   2.134  51.648  1.00  0.00    -0.078 SA
BRANCH  14  15
HETATM   15  C11 UNL     1      26.978   1.485  53.263  1.00  0.00     0.121 C 
BRANCH  15  16
HETATM   16  C12 UNL     1      27.548   0.116  53.158  1.00  0.00    -0.049 A 
HETATM   17  C13 UNL     1      26.754  -0.894  52.636  1.00  0.00     0.008 A 
HETATM   18  C14 UNL     1      27.298  -2.179  52.541  1.00  0.00     0.001 A 
HETATM   19  C15 UNL     1      28.569  -2.506  52.931  1.00  0.00     0.000 A 
HETATM   20  C16 UNL     1      29.332  -1.463  53.449  1.00  0.00     0.001 A 
HETATM   21  C17 UNL     1      28.844  -0.162  53.568  1.00  0.00     0.008 A 
ENDBRANCH  15  16
ENDBRANCH  14  15
ENDBRANCH   4  14
TORSDOF 7
ENDMDL
MODEL 3
REMARK VINA RESULT:      -6.5      3.638      6.387
REMARK  7 active torsions:
REMARK  status: ('A' for Active; 'I' for Inactive)
REMARK    1  A    between atoms: C2_2  and  C3_3 
REMARK    2  A    between atoms: C3_3  and  C4_4 
REMARK    3  A    between atoms: C4_4  and  C5_5 
REMARK    4  A    between atoms: C8_8  and  C9_9 
REMARK    5  A    between atoms: C10_12  and  S1_13 
REMARK    6  A    between atoms: S1_13  and  C11_14 
REMARK    7  A    between atoms: C11_14  and  C12_15 
ROOT
HETATM    1  C9  UNL     1      23.096   1.344  52.273  1.00  0.00     0.178 A 
HETATM    2  N1  UNL     1      23.217   2.506  52.937  1.00  0.00    -0.125 NA
HETATM    3  N2  UNL     1      23.720   3.439  52.160  1.00  0.00    -0.114 NA
HETATM    4  C10 UNL     1      23.931   2.868  50.962  1.00  0.00     0.231 A 
HETATM    5  O1  UNL     1      23.545   1.622  51.076  1.00  0.00    -0.268 OA
ENDROOT
BRANCH   1   6
HETATM    6  C8  UNL     1      22.592  -0.012  52.662  1.00  0.00     0.094 A 
HETATM    7  C5  UNL     1      23.492  -0.845  53.491  1.00  0.00     0.023 A 
HETATM    8  C6  UNL     1      22.448  -0.809  54.505  1.00  0.00    -0.024 A 
HETATM    9  C7  UNL     1      21.660  -0.069  53.759  1.00  0.00    -0.017 A 
BRANCH   7  10
HETATM   10  C4  UNL     1      24.790  -0.264  53.905  1.00  0.00     0.009 C 
BRANCH  10  11
HETATM   11  C3  UNL     1      25.981  -0.936  53.321  1.00  0.00     0.000 C 
BRANCH  11  12
HETATM   12  C2  UNL     1      26.538  -0.399  52.052  1.00  0.00    -0.005 C 
HETATM   13  C1  UNL     1      26.962   1.047  52.108  1.00  0.00     0.005 C 
ENDBRANCH  11  12
ENDBRANCH  10  11
ENDBRANCH   7  10
ENDBRANCH   1   6
BRANCH   4  14
HETATM   14  S1  UNL     1      24.592   3.528  49.434  1.00  0.00    -0.078 SA
BRANCH  14  15
HETATM   15  C11 UNL     1      26.396   3.723  49.546  1.00  0.00     0.121 C 
BRANCH  15  16
HETATM   16  C12 UNL     1      26.862   4.990  48.922  1.00  0.00    -0.049 A 
HETATM   17  C13 UNL     1      28.190   5.089  48.536  1.00  0.00     0.008 A 
HETATM   18  C14 UNL     1      28.620   6.284  47.949  1.00  0.00     0.001 A 
HETATM   19  C15 UNL     1      27.812   7.367  47.732  1.00  0.00     0.000 A 
HETATM   20  C16 UNL     1      26.486   7.226  48.134  1.00  0.00     0.001 A 
HETATM   21  C17 UNL     1      26.001   6.060  48.723  1.00  0.00     0.008 A 
ENDBRANCH  15  16
ENDBRANCH  14  15
ENDBRANCH   4  14
TORSDOF 7
ENDMDL
MODEL 4
REMARK VINA RESULT:      -6.4      3.919      6.613
REMARK  7 active torsions:
REMARK  status: ('A' for Active; 'I' for Inactive)
REMARK    1  A    between atoms: C2_2  and  C3_3 
REMARK    2  A    between atoms: C3_3  and  C4_4 
REMARK    3  A    between atoms: C4_4  and  C5_5 
REMARK    4  A    between atoms: C8_8  and  C9_9 
REMARK    5  A    between atoms: C10_12  and  S1_13 
REMARK    6  A    between atoms: S1_13  and  C11_14 
REMARK    7  A    between atoms: C11_14  and  C12_15 
ROOT
HETATM    1  C9  UNL     1      24.432   1.481  52.466  1.00  0.00     0.178 A 
HETATM    2  N1  UNL     1      23.848   2.499  53.121  1.00  0.00    -0.125 NA
HETATM    3  N2  UNL     1      23.909   3.605  52.413  1.00  0.00    -0.114 NA
HETATM    4  C10 UNL     1      24.548   3.297  51.272  1.00  0.00     0.231 A 
HETATM    5  O1  UNL     1      24.841   2.023  51.347  1.00  0.00    -0.268 OA
ENDROOT
BRANCH   1   6
HETATM    6  C8  UNL     1      24.644   0.035  52.798  1.00  0.00     0.094 A 
HETATM    7  C5  UNL     1      25.859  -0.301  53.573  1.00  0.00     0.023 A 
HETATM    8  C6  UNL     1      24.958  -0.799  54.603  1.00  0.00    -0.024 A 
HETATM    9  C7  UNL     1      23.888  -0.495  53.904  1.00  0.00    -0.017 A 
BRANCH   7  10
HETATM   10  C4  UNL     1      26.742   0.811  53.995  1.00  0.00     0.009 C 
BRANCH  10  11
HETATM   11  C3  UNL     1      28.016   0.379  54.629  1.00  0.00     0.000 C 
BRANCH  11  12
HETATM   12  C2  UNL     1      29.258   0.433  53.815  1.00  0.00    -0.005 C 
HETATM   13  C1  UNL     1      29.944  -0.895  53.619  1.00  0.00     0.005 C 
ENDBRANCH  11  12
ENDBRANCH  10  11
ENDBRANCH   7  10
ENDBRANCH   1   6
BRANCH   4  14
HETATM   14  S1  UNL     1      24.986   4.296  49.851  1.00  0.00    -0.078 SA
BRANCH  14  15
HETATM   15  C11 UNL     1      26.724   4.027  49.388  1.00  0.00     0.121 C 
BRANCH  15  16
HETATM   16  C12 UNL     1      27.318   5.219  48.727  1.00  0.00    -0.049 A 
HETATM   17  C13 UNL     1      26.495   6.299  48.444  1.00  0.00     0.008 A 
HETATM   18  C14 UNL     1      27.062   7.415  47.822  1.00  0.00     0.001 A 
HETATM   19  C15 UNL     1      28.381   7.512  47.472  1.00  0.00     0.000 A 
HETATM   20  C16 UNL     1      29.172   6.407  47.772  1.00  0.00     0.001 A 
HETATM   21  C17 UNL     1      28.664   5.266  48.392  1.00  0.00     0.008 A 
ENDBRANCH  15  16
ENDBRANCH  14  15
ENDBRANCH   4  14
TORSDOF 7
ENDMDL
MODEL 5
REMARK VINA RESULT:      -6.4      3.527      6.110
REMARK  7 active torsions:
REMARK  status: ('A' for Active; 'I' for Inactive)
REMARK    1  A    between atoms: C2_2  and  C3_3 
REMARK    2  A    between atoms: C3_3  and  C4_4 
REMARK    3  A    between atoms: C4_4  and  C5_5 
REMARK    4  A    between atoms: C8_8  and  C9_9 
REMARK    5  A    between atoms: C10_12  and  S1_13 
REMARK    6  A    between atoms: S1_13  and  C11_14 
REMARK    7  A    between atoms: C11_14  and  C12_15 
ROOT
HETATM    1  C9  UNL     1      25.277   1.858  52.814  1.00  0.00     0.178 A 
HETATM    2  N1  UNL     1      24.480   2.829  53.290  1.00  0.00    -0.125 NA
HETATM    3  N2  UNL     1      24.019   3.577  52.312  1.00  0.00    -0.114 NA
HETATM    4  C10 UNL     1      24.531   3.078  51.173  1.00  0.00     0.231 A 
HETATM    5  O1  UNL     1      25.272   2.057  51.521  1.00  0.00    -0.268 OA
ENDROOT
BRANCH   1   6
HETATM    6  C8  UNL     1      26.048   0.751  53.467  1.00  0.00     0.094 A 
HETATM    7  C5  UNL     1      25.303  -0.490  53.774  1.00  0.00     0.023 A 
HETATM    8  C6  UNL     1      26.227  -1.164  52.874  1.00  0.00    -0.024 A 
HETATM    9  C7  UNL     1      26.879  -0.055  52.609  1.00  0.00    -0.017 A 
BRANCH   7  10
HETATM   10  C4  UNL     1      23.877  -0.559  53.378  1.00  0.00     0.009 C 
BRANCH  10  11
HETATM   11  C3  UNL     1      22.948  -0.916  54.482  1.00  0.00     0.000 C 
BRANCH  11  12
HETATM   12  C2  UNL     1      21.589  -0.314  54.478  1.00  0.00    -0.005 C 
HETATM   13  C1  UNL     1      21.360   0.724  53.409  1.00  0.00     0.005 C 
ENDBRANCH  11  12
ENDBRANCH  10  11
ENDBRANCH   7  10
ENDBRANCH   1   6
BRANCH   4  14
HETATM   14  S1  UNL     1      24.339   3.585  49.466  1.00  0.00    -0.078 SA
BRANCH  14  15
HETATM   15  C11 UNL     1      24.588   5.378  49.296  1.00  0.00     0.121 C 
BRANCH  15  16
HETATM   16  C12 UNL     1      25.961   5.710  48.833  1.00  0.00    -0.049 A 
HETATM   17  C13 UNL     1      26.950   4.744  48.944  1.00  0.00     0.008 A 
HETATM   18  C14 UNL     1      28.239   5.065  48.506  1.00  0.00     0.001 A 
HETATM   19  C15 UNL     1      28.590   6.276  47.973  1.00  0.00     0.000 A 
HETATM   20  C16 UNL     1      27.568   7.218  47.881  1.00  0.00     0.001 A 
HETATM   21  C17 UNL     1      26.265   6.955  48.300  1.00  0.00     0.008 A 
ENDBRANCH  15  16
ENDBRANCH  14  15
ENDBRANCH   4  14
TORSDOF 7
ENDMDL
MODEL 6
REMARK VINA RESULT:      -6.3      1.854      2.187
REMARK  7 active torsions:
REMARK  status: ('A' for Active; 'I' for Inactive)
REMARK    1  A    between atoms: C2_2  and  C3_3 
REMARK    2  A    between atoms: C3_3  and  C4_4 
REMARK    3  A    between atoms: C4_4  and  C5_5 
REMARK    4  A    between atoms: C8_8  and  C9_9 
REMARK    5  A    between atoms: C10_12  and  S1_13 
REMARK    6  A    between atoms: S1_13  and  C11_14 
REMARK    7  A    between atoms: C11_14  and  C12_15 
ROOT
HETATM    1  C9  UNL     1      25.072  -0.708  53.805  1.00  0.00     0.178 A 
HETATM    2  N1  UNL     1      25.116  -1.071  55.098  1.00  0.00    -0.125 NA
HETATM    3  N2  UNL     1      23.904  -1.260  55.572  1.00  0.00    -0.114 NA
HETATM    4  C10 UNL     1      23.054  -1.013  54.562  1.00  0.00     0.231 A 
HETATM    5  O1  UNL     1      23.792  -0.689  53.531  1.00  0.00    -0.268 OA
ENDROOT
BRANCH   1   6
HETATM    6  C8  UNL     1      26.128  -0.376  52.796  1.00  0.00     0.094 A 
HETATM    7  C5  UNL     1      26.415   1.059  52.579  1.00  0.00     0.023 A 
HETATM    8  C6  UNL     1      27.767   0.768  53.034  1.00  0.00    -0.024 A 
HETATM    9  C7  UNL     1      27.498  -0.503  53.223  1.00  0.00    -0.017 A 
BRANCH   7  10
HETATM   10  C4  UNL     1      25.675   2.047  53.398  1.00  0.00     0.009 C 
BRANCH  10  11
HETATM   11  C3  UNL     1      24.605   2.776  52.667  1.00  0.00     0.000 C 
BRANCH  11  12
HETATM   12  C2  UNL     1      24.382   2.445  51.235  1.00  0.00    -0.005 C 
HETATM   13  C1  UNL     1      23.117   1.674  50.954  1.00  0.00     0.005 C 
ENDBRANCH  11  12
ENDBRANCH  10  11
ENDBRANCH   7  10
ENDBRANCH   1   6
BRANCH   4  14
HETATM   14  S1  UNL     1      21.266  -1.071  54.478  1.00  0.00    -0.078 SA
BRANCH  14  15
HETATM   15  C11 UNL     1      20.648   0.039  53.176  1.00  0.00     0.121 C 
BRANCH  15  16
HETATM   16  C12 UNL     1      19.287  -0.343  52.714  1.00  0.00    -0.049 A 
HETATM   17  C13 UNL     1      18.799   0.228  51.549  1.00  0.00     0.008 A 
HETATM   18  C14 UNL     1      17.518  -0.136  51.122  1.00  0.00     0.001 A 
HETATM   19  C15 UNL     1      16.712  -1.024  51.782  1.00  0.00     0.000 A 
HETATM   20  C16 UNL     1      17.240  -1.573  52.947  1.00  0.00     0.001 A 
HETATM   21  C17 UNL     1      18.510  -1.249  53.422  1.00  0.00     0.008 A 
ENDBRANCH  15  16
ENDBRANCH  14  15
ENDBRANCH   4  14
TORSDOF 7
ENDMDL
MODEL 7
REMARK VINA RESULT:      -6.3      2.719      3.998
REMARK  7 active torsions:
REMARK  status: ('A' for Active; 'I' for Inactive)
REMARK    1  A    between atoms: C2_2  and  C3_3 
REMARK    2  A    between atoms: C3_3  and  C4_4 
REMARK    3  A    between atoms: C4_4  and  C5_5 
REMARK    4  A    between atoms: C8_8  and  C9_9 
REMARK    5  A    between atoms: C10_12  and  S1_13 
REMARK    6  A    between atoms: S1_13  and  C11_14 
REMARK    7  A    between atoms: C11_14  and  C12_15 
ROOT
HETATM    1  C9  UNL     1      26.701   2.467  52.427  1.00  0.00     0.178 A 
HETATM    2  N1  UNL     1      27.096   2.813  51.191  1.00  0.00    -0.125 NA
HETATM    3  N2  UNL     1      26.062   3.104  50.433  1.00  0.00    -0.114 NA
HETATM    4  C10 UNL     1      24.968   2.943  51.198  1.00  0.00     0.231 A 
HETATM    5  O1  UNL     1      25.397   2.564  52.375  1.00  0.00    -0.268 OA
ENDROOT
BRANCH   1   6
HETATM    6  C8  UNL     1      27.440   2.052  53.663  1.00  0.00     0.094 A 
HETATM    7  C5  UNL     1      27.797   0.621  53.777  1.00  0.00     0.023 A 
HETATM    8  C6  UNL     1      29.186   1.059  53.798  1.00  0.00    -0.024 A 
HETATM    9  C7  UNL     1      28.854   2.326  53.696  1.00  0.00    -0.017 A 
BRANCH   7  10
HETATM   10  C4  UNL     1      27.439  -0.275  52.653  1.00  0.00     0.009 C 
BRANCH  10  11
HETATM   11  C3  UNL     1      26.397  -1.285  52.979  1.00  0.00     0.000 C 
BRANCH  11  12
HETATM   12  C2  UNL     1      25.036  -0.802  53.328  1.00  0.00    -0.005 C 
HETATM   13  C1  UNL     1      24.690  -0.888  54.793  1.00  0.00     0.005 C 
ENDBRANCH  11  12
ENDBRANCH  10  11
ENDBRANCH   7  10
ENDBRANCH   1   6
BRANCH   4  14
HETATM   14  S1  UNL     1      23.228   3.158  50.836  1.00  0.00    -0.078 SA
BRANCH  14  15
HETATM   15  C11 UNL     1      22.468   1.574  50.369  1.00  0.00     0.121 C 
BRANCH  15  16
HETATM   16  C12 UNL     1      21.639   1.006  51.464  1.00  0.00    -0.049 A 
HETATM   17  C13 UNL     1      22.111   1.091  52.765  1.00  0.00     0.008 A 
HETATM   18  C14 UNL     1      21.325   0.554  53.789  1.00  0.00     0.001 A 
HETATM   19  C15 UNL     1      20.115  -0.054  53.591  1.00  0.00     0.000 A 
HETATM   20  C16 UNL     1      19.678  -0.119  52.271  1.00  0.00     0.001 A 
HETATM   21  C17 UNL     1      20.417   0.399  51.209  1.00  0.00     0.008 A 
ENDBRANCH  15  16
ENDBRANCH  14  15
ENDBRANCH   4  14
TORSDOF 7
ENDMDL
MODEL 8
REMARK VINA RESULT:      -6.3      2.707      4.420
REMARK  7 active torsions:
REMARK  status: ('A' for Active; 'I' for Inactive)
REMARK    1  A    between atoms: C2_2  and  C3_3 
REMARK    2  A    between atoms: C3_3  and  C4_4 
REMARK    3  A    between atoms: C4_4  and  C5_5 
REMARK    4  A    between atoms: C8_8  and  C9_9 
REMARK    5  A    between atoms: C10_12  and  S1_13 
REMARK    6  A    between atoms: S1_13  and  C11_14 
REMARK    7  A    between atoms: C11_14  and  C12_15 
ROOT
HETATM    1  C9  UNL     1      26.001   1.040  51.962  1.00  0.00     0.178 A 
HETATM    2  N1  UNL     1      27.094   1.640  51.463  1.00  0.00    -0.125 NA
HETATM    3  N2  UNL     1      26.799   2.832  50.992  1.00  0.00    -0.114 NA
HETATM    4  C10 UNL     1      25.482   3.009  51.192  1.00  0.00     0.231 A 
HETATM    5  O1  UNL     1      25.049   1.918  51.771  1.00  0.00    -0.268 OA
ENDROOT
BRANCH   1   6
HETATM    6  C8  UNL     1      25.766  -0.291  52.608  1.00  0.00     0.094 A 
HETATM    7  C5  UNL     1      26.358  -0.496  53.948  1.00  0.00     0.023 A 
HETATM    8  C6  UNL     1      24.995  -0.678  54.427  1.00  0.00    -0.024 A 
HETATM    9  C7  UNL     1      24.483  -0.493  53.231  1.00  0.00    -0.017 A 
BRANCH   7  10
HETATM   10  C4  UNL     1      27.093   0.633  54.562  1.00  0.00     0.009 C 
BRANCH  10  11
HETATM   11  C3  UNL     1      28.510   0.335  54.901  1.00  0.00     0.000 C 
BRANCH  11  12
HETATM   12  C2  UNL     1      29.480   0.177  53.786  1.00  0.00    -0.005 C 
HETATM   13  C1  UNL     1      29.877  -1.248  53.490  1.00  0.00     0.005 C 
ENDBRANCH  11  12
ENDBRANCH  10  11
ENDBRANCH   7  10
ENDBRANCH   1   6
BRANCH   4  14
HETATM   14  S1  UNL     1      24.399   4.382  50.806  1.00  0.00    -0.078 SA
BRANCH  14  15
HETATM   15  C11 UNL     1      22.903   3.800  49.953  1.00  0.00     0.121 C 
BRANCH  15  16
HETATM   16  C12 UNL     1      22.235   2.692  50.687  1.00  0.00    -0.049 A 
HETATM   17  C13 UNL     1      22.071   1.476  50.043  1.00  0.00     0.008 A 
HETATM   18  C14 UNL     1      21.442   0.439  50.740  1.00  0.00     0.001 A 
HETATM   19  C15 UNL     1      20.976   0.548  52.023  1.00  0.00     0.000 A 
HETATM   20  C16 UNL     1      21.160   1.786  52.633  1.00  0.00     0.001 A 
HETATM   21  C17 UNL     1      21.780   2.856  51.988  1.00  0.00     0.008 A 
ENDBRANCH  15  16
ENDBRANCH  14  15
ENDBRANCH   4  14
TORSDOF 7
ENDMDL
MODEL 9
REMARK VINA RESULT:      -6.2      2.790      4.061
REMARK  7 active torsions:
REMARK  status: ('A' for Active; 'I' for Inactive)
REMARK    1  A    between atoms: C2_2  and  C3_3 
REMARK    2  A    between atoms: C3_3  and  C4_4 
REMARK    3  A    between atoms: C4_4  and  C5_5 
REMARK    4  A    between atoms: C8_8  and  C9_9 
REMARK    5  A    between atoms: C10_12  and  S1_13 
REMARK    6  A    between atoms: S1_13  and  C11_14 
REMARK    7  A    between atoms: C11_14  and  C12_15 
ROOT
HETATM    1  C9  UNL     1      26.354   2.339  52.438  1.00  0.00     0.178 A 
HETATM    2  N1  UNL     1      27.103   2.517  51.337  1.00  0.00    -0.125 NA
HETATM    3  N2  UNL     1      26.412   3.121  50.395  1.00  0.00    -0.114 NA
HETATM    4  C10 UNL     1      25.185   3.339  50.898  1.00  0.00     0.231 A 
HETATM    5  O1  UNL     1      25.197   2.858  52.116  1.00  0.00    -0.268 OA
ENDROOT
BRANCH   1   6
HETATM    6  C8  UNL     1      26.627   1.722  53.776  1.00  0.00     0.094 A 
HETATM    7  C5  UNL     1      25.883   0.487  54.105  1.00  0.00     0.023 A 
HETATM    8  C6  UNL     1      27.180  -0.169  54.190  1.00  0.00    -0.024 A 
HETATM    9  C7  UNL     1      27.829   0.935  53.895  1.00  0.00    -0.017 A 
BRANCH   7  10
HETATM   10  C4  UNL     1      24.966  -0.065  53.082  1.00  0.00     0.009 C 
BRANCH  10  11
HETATM   11  C3  UNL     1      23.524   0.172  53.354  1.00  0.00     0.000 C 
BRANCH  11  12
HETATM   12  C2  UNL     1      22.681  -0.993  53.733  1.00  0.00    -0.005 C 
HETATM   13  C1  UNL     1      21.724  -0.738  54.870  1.00  0.00     0.005 C 
ENDBRANCH  11  12
ENDBRANCH  10  11
ENDBRANCH   7  10
ENDBRANCH   1   6
BRANCH   4  14
HETATM   14  S1  UNL     1      23.733   4.109  50.188  1.00  0.00    -0.078 SA
BRANCH  14  15
HETATM   15  C11 UNL     1      22.360   4.115  51.380  1.00  0.00     0.121 C 
BRANCH  15  16
HETATM   16  C12 UNL     1      21.622   2.825  51.390  1.00  0.00    -0.049 A 
HETATM   17  C13 UNL     1      21.912   1.887  50.411  1.00  0.00     0.008 A 
HETATM   18  C14 UNL     1      21.213   0.676  50.427  1.00  0.00     0.001 A 
HETATM   19  C15 UNL     1      20.256   0.355  51.351  1.00  0.00     0.000 A 
HETATM   20  C16 UNL     1      19.994   1.323  52.317  1.00  0.00     0.001 A 
HETATM   21  C17 UNL     1      20.659   2.548  52.351  1.00  0.00     0.008 A 
ENDBRANCH  15  16
ENDBRANCH  14  15
ENDBRANCH   4  14
TORSDOF 7
ENDMDL
