MODEL 1
REMARK VINA RESULT:      -8.0      0.000      0.000
REMARK  7 active torsions:
REMARK  status: ('A' for Active; 'I' for Inactive)
REMARK    1  A    between atoms: C5_6  and  C6_7 
REMARK    2  A    between atoms: C6_7  and  O1_8 
REMARK    3  A    between atoms: O1_8  and  C7_9 
REMARK    4  A    between atoms: C9_12  and  N1_13 
REMARK    5  A    between atoms: N1_13  and  C10_14 
REMARK    6  A    between atoms: C15_19  and  C16_20 
REMARK    7  A    between atoms: C17_21  and  C18_22 
ROOT
HETATM    1  C7  UNL     1      22.816   3.982  50.392  1.00  0.00     0.112 A 
HETATM    2  C8  UNL     1      22.952   3.892  49.021  1.00  0.00     0.176 A 
HETATM    3  O2  UNL     1      23.402   4.940  48.289  1.00  0.00    -0.332 OA
HETATM    4  C9  UNL     1      23.880   6.192  48.867  1.00  0.00     0.252 A 
HETATM    5  C20 UNL     1      23.638   6.122  50.316  1.00  0.00     0.053 A 
HETATM    6  C21 UNL     1      23.170   5.204  51.168  1.00  0.00     0.069 A 
HETATM    7 CL1  UNL     1      22.752   4.730  52.771  1.00  0.00    -0.081 Cl
ENDROOT
BRANCH   4   8
HETATM    8  N1  UNL     1      25.240   6.397  48.535  1.00  0.00    -0.359 N 
HETATM    9  H8  UNL     1      24.946   5.981  47.595  1.00  0.00     0.162 HD
BRANCH   8  10
HETATM   10  C10 UNL     1      26.598   6.602  48.202  1.00  0.00     0.049 A 
HETATM   11  C11 UNL     1      27.201   7.607  47.532  1.00  0.00     0.031 A 
HETATM   12  C12 UNL     1      28.498   7.752  47.138  1.00  0.00     0.002 A 
HETATM   13  C13 UNL     1      29.234   6.611  47.540  1.00  0.00     0.002 A 
HETATM   14  C14 UNL     1      28.682   5.599  48.207  1.00  0.00     0.023 A 
HETATM   15  C15 UNL     1      27.362   5.482  48.600  1.00  0.00     0.044 A 
BRANCH  15  16
HETATM   16  C16 UNL     1      27.034   4.372  49.382  1.00  0.00    -0.062 C 
HETATM   17  C17 UNL     1      26.743   3.417  50.079  1.00  0.00    -0.068 C 
BRANCH  17  18
HETATM   18  C18 UNL     1      26.409   2.269  50.893  1.00  0.00     0.226 A 
HETATM   19  C19 UNL     1      26.105   2.323  52.254  1.00  0.00     0.125 A 
HETATM   20  N2  UNL     1      27.437   2.138  51.963  1.00  0.00    -0.280 NA
ENDBRANCH  17  18
ENDBRANCH  15  16
ENDBRANCH   8  10
ENDBRANCH   4   8
BRANCH   1  21
HETATM   21  O1  UNL     1      22.348   2.770  50.725  1.00  0.00    -0.343 OA
BRANCH  21  22
HETATM   22  C6  UNL     1      22.871   1.514  50.918  1.00  0.00     0.214 C 
BRANCH  22  23
HETATM   23  C5  UNL     1      22.395   0.912  52.226  1.00  0.00    -0.031 A 
HETATM   24  C4  UNL     1      21.105   1.260  52.536  1.00  0.00     0.009 A 
HETATM   25  C3  UNL     1      20.761   0.634  53.690  1.00  0.00     0.004 A 
HETATM   26  C2  UNL     1      21.333  -0.213  54.587  1.00  0.00     0.042 A 
HETATM   27  C1  UNL     1      22.683  -0.480  54.126  1.00  0.00     0.117 A 
HETATM   28  F1  UNL     1      23.401  -1.320  54.920  1.00  0.00    -0.206 F 
HETATM   29  C22 UNL     1      23.227   0.068  52.959  1.00  0.00     0.051 A 
ENDBRANCH  22  23
ENDBRANCH  21  22
ENDBRANCH   1  21
TORSDOF 7
ENDMDL
MODEL 2
REMARK VINA RESULT:      -8.0      3.206      8.117
REMARK  7 active torsions:
REMARK  status: ('A' for Active; 'I' for Inactive)
REMARK    1  A    between atoms: C5_6  and  C6_7 
REMARK    2  A    between atoms: C6_7  and  O1_8 
REMARK    3  A    between atoms: O1_8  and  C7_9 
REMARK    4  A    between atoms: C9_12  and  N1_13 
REMARK    5  A    between atoms: N1_13  and  C10_14 
REMARK    6  A    between atoms: C15_19  and  C16_20 
REMARK    7  A    between atoms: C17_21  and  C18_22 
ROOT
HETATM    1  C7  UNL     1      24.387   3.705  49.994  1.00  0.00     0.112 A 
HETATM    2  C8  UNL     1      24.942   3.394  51.220  1.00  0.00     0.176 A 
HETATM    3  O2  UNL     1      24.167   3.231  52.320  1.00  0.00    -0.332 OA
HETATM    4  C9  UNL     1      22.708   3.256  52.300  1.00  0.00     0.252 A 
HETATM    5  C20 UNL     1      22.298   3.623  50.936  1.00  0.00     0.053 A 
HETATM    6  C21 UNL     1      22.921   3.858  49.777  1.00  0.00     0.069 A 
HETATM    7 CL1  UNL     1      22.860   4.275  48.106  1.00  0.00    -0.081 Cl
ENDROOT
BRANCH   4   8
HETATM    8  N1  UNL     1      22.192   2.009  52.725  1.00  0.00    -0.359 N 
HETATM    9  H8  UNL     1      23.142   1.644  52.400  1.00  0.00     0.162 HD
BRANCH   8  10
HETATM   10  C10 UNL     1      21.677   0.763  53.150  1.00  0.00     0.049 A 
HETATM   11  C11 UNL     1      20.405   0.339  53.300  1.00  0.00     0.031 A 
HETATM   12  C12 UNL     1      19.918  -0.834  53.797  1.00  0.00     0.002 A 
HETATM   13  C13 UNL     1      21.001  -1.654  54.192  1.00  0.00     0.002 A 
HETATM   14  C14 UNL     1      22.272  -1.279  54.056  1.00  0.00     0.023 A 
HETATM   15  C15 UNL     1      22.738  -0.084  53.542  1.00  0.00     0.044 A 
BRANCH  15  16
HETATM   16  C16 UNL     1      24.121   0.046  53.404  1.00  0.00    -0.062 C 
HETATM   17  C17 UNL     1      25.330   0.138  53.284  1.00  0.00    -0.068 C 
BRANCH  17  18
HETATM   18  C18 UNL     1      26.763   0.270  53.148  1.00  0.00     0.226 A 
HETATM   19  C19 UNL     1      27.648  -0.800  53.003  1.00  0.00     0.125 A 
HETATM   20  N2  UNL     1      27.409  -0.416  54.302  1.00  0.00    -0.280 NA
ENDBRANCH  17  18
ENDBRANCH  15  16
ENDBRANCH   8  10
ENDBRANCH   4   8
BRANCH   1  21
HETATM   21  O1  UNL     1      25.461   3.786  49.194  1.00  0.00    -0.343 OA
BRANCH  21  22
HETATM   22  C6  UNL     1      26.816   3.955  49.352  1.00  0.00     0.214 C 
BRANCH  22  23
HETATM   23  C5  UNL     1      27.292   5.241  48.704  1.00  0.00    -0.031 A 
HETATM   24  C4  UNL     1      28.626   5.216  48.386  1.00  0.00     0.009 A 
HETATM   25  C3  UNL     1      28.939   6.384  47.770  1.00  0.00     0.004 A 
HETATM   26  C2  UNL     1      28.306   7.530  47.400  1.00  0.00     0.042 A 
HETATM   27  C1  UNL     1      26.918   7.405  47.806  1.00  0.00     0.117 A 
HETATM   28  F1  UNL     1      26.138   8.479  47.506  1.00  0.00    -0.206 F 
HETATM   29  C22 UNL     1      26.397   6.279  48.453  1.00  0.00     0.051 A 
ENDBRANCH  22  23
ENDBRANCH  21  22
ENDBRANCH   1  21
TORSDOF 7
ENDMDL
MODEL 3
REMARK VINA RESULT:      -8.0      3.852      7.379
REMARK  7 active torsions:
REMARK  status: ('A' for Active; 'I' for Inactive)
REMARK    1  A    between atoms: C5_6  and  C6_7 
REMARK    2  A    between atoms: C6_7  and  O1_8 
REMARK    3  A    between atoms: O1_8  and  C7_9 
REMARK    4  A    between atoms: C9_12  and  N1_13 
REMARK    5  A    between atoms: N1_13  and  C10_14 
REMARK    6  A    between atoms: C15_19  and  C16_20 
REMARK    7  A    between atoms: C17_21  and  C18_22 
ROOT
HETATM    1  C7  UNL     1      24.942   2.504  51.699  1.00  0.00     0.112 A 
HETATM    2  C8  UNL     1      24.149   2.221  52.794  1.00  0.00     0.176 A 
HETATM    3  O2  UNL     1      22.863   2.643  52.857  1.00  0.00    -0.332 OA
HETATM    4  C9  UNL     1      22.173   3.320  51.764  1.00  0.00     0.252 A 
HETATM    5  C20 UNL     1      23.166   3.560  50.706  1.00  0.00     0.053 A 
HETATM    6  C21 UNL     1      24.454   3.258  50.511  1.00  0.00     0.069 A 
HETATM    7 CL1  UNL     1      25.872   3.325  49.535  1.00  0.00    -0.081 Cl
ENDROOT
BRANCH   4   8
HETATM    8  N1  UNL     1      21.067   2.550  51.332  1.00  0.00    -0.359 N 
HETATM    9  H8  UNL     1      21.394   1.878  52.095  1.00  0.00     0.162 HD
BRANCH   8  10
HETATM   10  C10 UNL     1      19.962   1.782  50.901  1.00  0.00     0.049 A 
HETATM   11  C11 UNL     1      19.142   1.934  49.841  1.00  0.00     0.031 A 
HETATM   12  C12 UNL     1      18.023   1.240  49.483  1.00  0.00     0.002 A 
HETATM   13  C13 UNL     1      17.775   0.234  50.448  1.00  0.00     0.002 A 
HETATM   14  C14 UNL     1      18.561   0.045  51.506  1.00  0.00     0.023 A 
HETATM   15  C15 UNL     1      19.695   0.761  51.840  1.00  0.00     0.044 A 
BRANCH  15  16
HETATM   16  C16 UNL     1      20.418   0.314  52.948  1.00  0.00    -0.062 C 
HETATM   17  C17 UNL     1      21.041  -0.061  53.925  1.00  0.00    -0.068 C 
BRANCH  17  18
HETATM   18  C18 UNL     1      21.794  -0.518  55.072  1.00  0.00     0.226 A 
HETATM   19  C19 UNL     1      22.975  -1.258  55.002  1.00  0.00     0.125 A 
HETATM   20  N2  UNL     1      21.822  -2.007  55.053  1.00  0.00    -0.280 NA
ENDBRANCH  17  18
ENDBRANCH  15  16
ENDBRANCH   8  10
ENDBRANCH   4   8
BRANCH   1  21
HETATM   21  O1  UNL     1      26.112   1.934  52.025  1.00  0.00    -0.343 OA
BRANCH  21  22
HETATM   22  C6  UNL     1      26.964   1.944  53.103  1.00  0.00     0.214 C 
BRANCH  22  23
HETATM   23  C5  UNL     1      27.805   0.683  53.155  1.00  0.00    -0.031 A 
HETATM   24  C4  UNL     1      29.079   0.909  53.609  1.00  0.00     0.009 A 
HETATM   25  C3  UNL     1      29.728  -0.282  53.667  1.00  0.00     0.004 A 
HETATM   26  C2  UNL     1      29.462  -1.589  53.401  1.00  0.00     0.042 A 
HETATM   27  C1  UNL     1      28.091  -1.662  52.930  1.00  0.00     0.117 A 
HETATM   28  F1  UNL     1      27.662  -2.915  52.618  1.00  0.00    -0.206 F 
HETATM   29  C22 UNL     1      27.254  -0.548  52.802  1.00  0.00     0.051 A 
ENDBRANCH  22  23
ENDBRANCH  21  22
ENDBRANCH   1  21
TORSDOF 7
ENDMDL
MODEL 4
REMARK VINA RESULT:      -8.0      3.244      8.094
REMARK  7 active torsions:
REMARK  status: ('A' for Active; 'I' for Inactive)
REMARK    1  A    between atoms: C5_6  and  C6_7 
REMARK    2  A    between atoms: C6_7  and  O1_8 
REMARK    3  A    between atoms: O1_8  and  C7_9 
REMARK    4  A    between atoms: C9_12  and  N1_13 
REMARK    5  A    between atoms: N1_13  and  C10_14 
REMARK    6  A    between atoms: C15_19  and  C16_20 
REMARK    7  A    between atoms: C17_21  and  C18_22 
ROOT
HETATM    1  C7  UNL     1      24.407   3.672  50.000  1.00  0.00     0.112 A 
HETATM    2  C8  UNL     1      24.933   3.351  51.236  1.00  0.00     0.176 A 
HETATM    3  O2  UNL     1      24.134   3.198  52.320  1.00  0.00    -0.332 OA
HETATM    4  C9  UNL     1      22.676   3.245  52.272  1.00  0.00     0.252 A 
HETATM    5  C20 UNL     1      22.299   3.621  50.901  1.00  0.00     0.053 A 
HETATM    6  C21 UNL     1      22.948   3.848  49.754  1.00  0.00     0.069 A 
HETATM    7 CL1  UNL     1      22.926   4.269  48.084  1.00  0.00    -0.081 Cl
ENDROOT
BRANCH   4   8
HETATM    8  N1  UNL     1      22.134   2.005  52.684  1.00  0.00    -0.359 N 
HETATM    9  H8  UNL     1      22.787   1.610  51.937  1.00  0.00     0.162 HD
BRANCH   8  10
HETATM   10  C10 UNL     1      21.592   0.767  53.096  1.00  0.00     0.049 A 
HETATM   11  C11 UNL     1      20.313   0.338  53.152  1.00  0.00     0.031 A 
HETATM   12  C12 UNL     1      19.793  -0.826  53.637  1.00  0.00     0.002 A 
HETATM   13  C13 UNL     1      20.845  -1.629  54.139  1.00  0.00     0.002 A 
HETATM   14  C14 UNL     1      22.120  -1.248  54.099  1.00  0.00     0.023 A 
HETATM   15  C15 UNL     1      22.621  -0.063  53.595  1.00  0.00     0.044 A 
BRANCH  15  16
HETATM   16  C16 UNL     1      24.010   0.073  53.568  1.00  0.00    -0.062 C 
HETATM   17  C17 UNL     1      25.222   0.187  53.524  1.00  0.00    -0.068 C 
BRANCH  17  18
HETATM   18  C18 UNL     1      26.662   0.321  53.495  1.00  0.00     0.226 A 
HETATM   19  C19 UNL     1      27.490   0.226  54.614  1.00  0.00     0.125 A 
HETATM   20  N2  UNL     1      27.041   1.495  54.330  1.00  0.00    -0.280 NA
ENDBRANCH  17  18
ENDBRANCH  15  16
ENDBRANCH   8  10
ENDBRANCH   4   8
BRANCH   1  21
HETATM   21  O1  UNL     1      25.498   3.739  49.221  1.00  0.00    -0.343 OA
BRANCH  21  22
HETATM   22  C6  UNL     1      26.846   3.930  49.403  1.00  0.00     0.214 C 
BRANCH  22  23
HETATM   23  C5  UNL     1      27.329   5.178  48.690  1.00  0.00    -0.031 A 
HETATM   24  C4  UNL     1      26.346   6.122  48.541  1.00  0.00     0.009 A 
HETATM   25  C3  UNL     1      26.889   7.212  47.941  1.00  0.00     0.004 A 
HETATM   26  C2  UNL     1      28.102   7.602  47.465  1.00  0.00     0.042 A 
HETATM   27  C1  UNL     1      29.024   6.504  47.690  1.00  0.00     0.117 A 
HETATM   28  F1  UNL     1      30.297   6.733  47.266  1.00  0.00    -0.206 F 
HETATM   29  C22 UNL     1      28.660   5.296  48.295  1.00  0.00     0.051 A 
ENDBRANCH  22  23
ENDBRANCH  21  22
ENDBRANCH   1  21
TORSDOF 7
ENDMDL
MODEL 5
REMARK VINA RESULT:      -7.9      3.737      5.537
REMARK  7 active torsions:
REMARK  status: ('A' for Active; 'I' for Inactive)
REMARK    1  A    between atoms: C5_6  and  C6_7 
REMARK    2  A    between atoms: C6_7  and  O1_8 
REMARK    3  A    between atoms: O1_8  and  C7_9 
REMARK    4  A    between atoms: C9_12  and  N1_13 
REMARK    5  A    between atoms: N1_13  and  C10_14 
REMARK    6  A    between atoms: C15_19  and  C16_20 
REMARK    7  A    between atoms: C17_21  and  C18_22 
ROOT
HETATM    1  C7  UNL     1      22.155   2.404  50.969  1.00  0.00     0.112 A 
HETATM    2  C8  UNL     1      23.253   2.197  50.157  1.00  0.00     0.176 A 
HETATM    3  O2  UNL     1      24.469   2.704  50.477  1.00  0.00    -0.332 OA
HETATM    4  C9  UNL     1      24.757   3.402  51.726  1.00  0.00     0.252 A 
HETATM    5  C20 UNL     1      23.483   3.553  52.444  1.00  0.00     0.053 A 
HETATM    6  C21 UNL     1      22.219   3.162  52.249  1.00  0.00     0.069 A 
HETATM    7 CL1  UNL     1      20.575   3.114  52.763  1.00  0.00    -0.081 Cl
ENDROOT
BRANCH   4   8
HETATM    8  N1  UNL     1      25.737   2.697  52.464  1.00  0.00    -0.359 N 
HETATM    9  H8  UNL     1      26.050   2.365  51.498  1.00  0.00     0.162 HD
BRANCH   8  10
HETATM   10  C10 UNL     1      26.717   1.994  53.201  1.00  0.00     0.049 A 
HETATM   11  C11 UNL     1      28.022   2.264  53.416  1.00  0.00     0.031 A 
HETATM   12  C12 UNL     1      28.981   1.533  54.053  1.00  0.00     0.002 A 
HETATM   13  C13 UNL     1      28.411   0.322  54.513  1.00  0.00     0.002 A 
HETATM   14  C14 UNL     1      27.127   0.018  54.328  1.00  0.00     0.023 A 
HETATM   15  C15 UNL     1      26.174   0.782  53.683  1.00  0.00     0.044 A 
BRANCH  15  16
HETATM   16  C16 UNL     1      24.863   0.301  53.701  1.00  0.00    -0.062 C 
HETATM   17  C17 UNL     1      23.713  -0.100  53.722  1.00  0.00    -0.068 C 
BRANCH  17  18
HETATM   18  C18 UNL     1      22.356  -0.597  53.748  1.00  0.00     0.226 A 
HETATM   19  C19 UNL     1      21.407  -0.264  54.716  1.00  0.00     0.125 A 
HETATM   20  N2  UNL     1      22.165  -1.376  55.003  1.00  0.00    -0.280 NA
ENDBRANCH  17  18
ENDBRANCH  15  16
ENDBRANCH   8  10
ENDBRANCH   4   8
BRANCH   1  21
HETATM   21  O1  UNL     1      21.175   1.765  50.312  1.00  0.00    -0.343 OA
BRANCH  21  22
HETATM   22  C6  UNL     1      20.697   0.479  50.232  1.00  0.00     0.214 C 
BRANCH  22  23
HETATM   23  C5  UNL     1      19.299   0.372  50.808  1.00  0.00    -0.031 A 
HETATM   24  C4  UNL     1      18.347   0.953  50.011  1.00  0.00     0.009 A 
HETATM   25  C3  UNL     1      17.133   0.760  50.587  1.00  0.00     0.004 A 
HETATM   26  C2  UNL     1      16.629   0.167  51.703  1.00  0.00     0.042 A 
HETATM   27  C1  UNL     1      17.751  -0.391  52.437  1.00  0.00     0.117 A 
HETATM   28  F1  UNL     1      17.416  -1.027  53.592  1.00  0.00    -0.206 F 
HETATM   29  C22 UNL     1      19.080  -0.300  52.009  1.00  0.00     0.051 A 
ENDBRANCH  22  23
ENDBRANCH  21  22
ENDBRANCH   1  21
TORSDOF 7
ENDMDL
MODEL 6
REMARK VINA RESULT:      -7.5      3.156      4.921
REMARK  7 active torsions:
REMARK  status: ('A' for Active; 'I' for Inactive)
REMARK    1  A    between atoms: C5_6  and  C6_7 
REMARK    2  A    between atoms: C6_7  and  O1_8 
REMARK    3  A    between atoms: O1_8  and  C7_9 
REMARK    4  A    between atoms: C9_12  and  N1_13 
REMARK    5  A    between atoms: N1_13  and  C10_14 
REMARK    6  A    between atoms: C15_19  and  C16_20 
REMARK    7  A    between atoms: C17_21  and  C18_22 
ROOT
HETATM    1  C7  UNL     1      25.472   2.298  51.624  1.00  0.00     0.112 A 
HETATM    2  C8  UNL     1      26.779   2.637  51.332  1.00  0.00     0.176 A 
HETATM    3  O2  UNL     1      27.085   3.369  50.233  1.00  0.00    -0.332 OA
HETATM    4  C9  UNL     1      26.090   3.950  49.338  1.00  0.00     0.252 A 
HETATM    5  C20 UNL     1      24.773   3.469  49.781  1.00  0.00     0.053 A 
HETATM    6  C21 UNL     1      24.313   2.722  50.790  1.00  0.00     0.069 A 
HETATM    7 CL1  UNL     1      22.999   1.977  51.618  1.00  0.00    -0.081 Cl
ENDROOT
BRANCH   4   8
HETATM    8  N1  UNL     1      26.201   5.361  49.335  1.00  0.00    -0.359 N 
HETATM    9  H8  UNL     1      26.892   5.183  48.540  1.00  0.00     0.162 HD
BRANCH   8  10
HETATM   10  C10 UNL     1      26.310   6.770  49.331  1.00  0.00     0.049 A 
HETATM   11  C11 UNL     1      25.436   7.724  49.715  1.00  0.00     0.031 A 
HETATM   12  C12 UNL     1      25.515   9.082  49.624  1.00  0.00     0.002 A 
HETATM   13  C13 UNL     1      26.742   9.434  49.010  1.00  0.00     0.002 A 
HETATM   14  C14 UNL     1      27.636   8.526  48.622  1.00  0.00     0.023 A 
HETATM   15  C15 UNL     1      27.531   7.153  48.733  1.00  0.00     0.044 A 
BRANCH  15  16
HETATM   16  C16 UNL     1      28.645   6.403  48.347  1.00  0.00    -0.062 C 
HETATM   17  C17 UNL     1      29.625   5.767  48.006  1.00  0.00    -0.068 C 
BRANCH  17  18
HETATM   18  C18 UNL     1      30.777   4.993  47.598  1.00  0.00     0.226 A 
HETATM   19  C19 UNL     1      32.043   5.090  48.177  1.00  0.00     0.125 A 
HETATM   20  N2  UNL     1      31.826   5.933  47.111  1.00  0.00    -0.280 NA
ENDBRANCH  17  18
ENDBRANCH  15  16
ENDBRANCH   8  10
ENDBRANCH   4   8
BRANCH   1  21
HETATM   21  O1  UNL     1      25.596   1.586  52.754  1.00  0.00    -0.343 OA
BRANCH  21  22
HETATM   22  C6  UNL     1      26.471   1.531  53.812  1.00  0.00     0.214 C 
BRANCH  22  23
HETATM   23  C5  UNL     1      27.500   0.433  53.622  1.00  0.00    -0.031 A 
HETATM   24  C4  UNL     1      28.764   0.817  53.992  1.00  0.00     0.009 A 
HETATM   25  C3  UNL     1      29.595  -0.245  53.832  1.00  0.00     0.004 A 
HETATM   26  C2  UNL     1      29.511  -1.538  53.417  1.00  0.00     0.042 A 
HETATM   27  C1  UNL     1      28.126  -1.785  53.059  1.00  0.00     0.117 A 
HETATM   28  F1  UNL     1      27.869  -3.046  52.618  1.00  0.00    -0.206 F 
HETATM   29  C22 UNL     1      27.116  -0.822  53.154  1.00  0.00     0.051 A 
ENDBRANCH  22  23
ENDBRANCH  21  22
ENDBRANCH   1  21
TORSDOF 7
ENDMDL
MODEL 7
REMARK VINA RESULT:      -7.3      3.930      7.454
REMARK  7 active torsions:
REMARK  status: ('A' for Active; 'I' for Inactive)
REMARK    1  A    between atoms: C5_6  and  C6_7 
REMARK    2  A    between atoms: C6_7  and  O1_8 
REMARK    3  A    between atoms: O1_8  and  C7_9 
REMARK    4  A    between atoms: C9_12  and  N1_13 
REMARK    5  A    between atoms: N1_13  and  C10_14 
REMARK    6  A    between atoms: C15_19  and  C16_20 
REMARK    7  A    between atoms: C17_21  and  C18_22 
ROOT
HETATM    1  C7  UNL     1      23.728   0.335  53.137  1.00  0.00     0.112 A 
HETATM    2  C8  UNL     1      23.645   1.023  51.943  1.00  0.00     0.176 A 
HETATM    3  O2  UNL     1      22.569   0.890  51.129  1.00  0.00    -0.332 OA
HETATM    4  C9  UNL     1      21.379   0.119  51.472  1.00  0.00     0.252 A 
HETATM    5  C20 UNL     1      21.652  -0.559  52.748  1.00  0.00     0.053 A 
HETATM    6  C21 UNL     1      22.655  -0.571  53.633  1.00  0.00     0.069 A 
HETATM    7 CL1  UNL     1      23.340  -1.148  55.104  1.00  0.00    -0.081 Cl
ENDROOT
BRANCH   4   8
HETATM    8  N1  UNL     1      20.245   0.964  51.517  1.00  0.00    -0.359 N 
HETATM    9  H8  UNL     1      19.749   0.078  51.849  1.00  0.00     0.162 HD
BRANCH   8  10
HETATM   10  C10 UNL     1      19.113   1.809  51.562  1.00  0.00     0.049 A 
HETATM   11  C11 UNL     1      17.798   1.529  51.449  1.00  0.00     0.031 A 
HETATM   12  C12 UNL     1      16.718   2.361  51.404  1.00  0.00     0.002 A 
HETATM   13  C13 UNL     1      17.164   3.702  51.489  1.00  0.00     0.002 A 
HETATM   14  C14 UNL     1      18.451   4.024  51.608  1.00  0.00     0.023 A 
HETATM   15  C15 UNL     1      19.526   3.157  51.658  1.00  0.00     0.044 A 
BRANCH  15  16
HETATM   16  C16 UNL     1      20.782   3.723  51.888  1.00  0.00    -0.062 C 
HETATM   17  C17 UNL     1      21.881   4.214  52.069  1.00  0.00    -0.068 C 
BRANCH  17  18
HETATM   18  C18 UNL     1      23.185   4.793  52.305  1.00  0.00     0.226 A 
HETATM   19  C19 UNL     1      23.724   5.856  51.579  1.00  0.00     0.125 A 
HETATM   20  N2  UNL     1      24.011   4.607  51.079  1.00  0.00    -0.280 NA
ENDBRANCH  17  18
ENDBRANCH  15  16
ENDBRANCH   8  10
ENDBRANCH   4   8
BRANCH   1  21
HETATM   21  O1  UNL     1      24.917   0.725  53.622  1.00  0.00    -0.343 OA
BRANCH  21  22
HETATM   22  C6  UNL     1      26.151   1.042  53.110  1.00  0.00     0.214 C 
BRANCH  22  23
HETATM   23  C5  UNL     1      27.084  -0.153  53.136  1.00  0.00    -0.031 A 
HETATM   24  C4  UNL     1      26.507  -1.292  52.636  1.00  0.00     0.009 A 
HETATM   25  C3  UNL     1      27.434  -2.284  52.657  1.00  0.00     0.004 A 
HETATM   26  C2  UNL     1      28.733  -2.443  53.030  1.00  0.00     0.042 A 
HETATM   27  C1  UNL     1      29.194  -1.163  53.538  1.00  0.00     0.117 A 
HETATM   28  F1  UNL     1      30.488  -1.151  53.957  1.00  0.00    -0.206 F 
HETATM   29  C22 UNL     1      28.392  -0.018  53.598  1.00  0.00     0.051 A 
ENDBRANCH  22  23
ENDBRANCH  21  22
ENDBRANCH   1  21
TORSDOF 7
ENDMDL
MODEL 8
REMARK VINA RESULT:      -7.2      3.320      5.700
REMARK  7 active torsions:
REMARK  status: ('A' for Active; 'I' for Inactive)
REMARK    1  A    between atoms: C5_6  and  C6_7 
REMARK    2  A    between atoms: C6_7  and  O1_8 
REMARK    3  A    between atoms: O1_8  and  C7_9 
REMARK    4  A    between atoms: C9_12  and  N1_13 
REMARK    5  A    between atoms: N1_13  and  C10_14 
REMARK    6  A    between atoms: C15_19  and  C16_20 
REMARK    7  A    between atoms: C17_21  and  C18_22 
ROOT
HETATM    1  C7  UNL     1      24.707   1.780  51.710  1.00  0.00     0.112 A 
HETATM    2  C8  UNL     1      25.672   2.592  51.147  1.00  0.00     0.176 A 
HETATM    3  O2  UNL     1      25.425   3.294  50.014  1.00  0.00    -0.332 OA
HETATM    4  C9  UNL     1      24.123   3.350  49.358  1.00  0.00     0.252 A 
HETATM    5  C20 UNL     1      23.237   2.416  50.069  1.00  0.00     0.053 A 
HETATM    6  C21 UNL     1      23.336   1.631  51.148  1.00  0.00     0.069 A 
HETATM    7 CL1  UNL     1      22.638   0.489  52.232  1.00  0.00    -0.081 Cl
ENDROOT
BRANCH   4   8
HETATM    8  N1  UNL     1      23.640   4.680  49.343  1.00  0.00    -0.359 N 
HETATM    9  H8  UNL     1      24.248   4.760  48.468  1.00  0.00     0.162 HD
BRANCH   8  10
HETATM   10  C10 UNL     1      23.158   6.008  49.327  1.00  0.00     0.049 A 
HETATM   11  C11 UNL     1      23.626   7.110  48.704  1.00  0.00     0.031 A 
HETATM   12  C12 UNL     1      23.206   8.406  48.767  1.00  0.00     0.002 A 
HETATM   13  C13 UNL     1      22.109   8.493  49.658  1.00  0.00     0.002 A 
HETATM   14  C14 UNL     1      21.611   7.432  50.289  1.00  0.00     0.023 A 
HETATM   15  C15 UNL     1      22.054   6.126  50.201  1.00  0.00     0.044 A 
BRANCH  15  16
HETATM   16  C16 UNL     1      21.308   5.161  50.881  1.00  0.00    -0.062 C 
HETATM   17  C17 UNL     1      20.654   4.332  51.489  1.00  0.00    -0.068 C 
BRANCH  17  18
HETATM   18  C18 UNL     1      19.887   3.332  52.198  1.00  0.00     0.226 A 
HETATM   19  C19 UNL     1      19.067   2.382  51.588  1.00  0.00     0.125 A 
HETATM   20  N2  UNL     1      18.443   3.563  51.918  1.00  0.00    -0.280 NA
ENDBRANCH  17  18
ENDBRANCH  15  16
ENDBRANCH   8  10
ENDBRANCH   4   8
BRANCH   1  21
HETATM   21  O1  UNL     1      25.335   1.272  52.782  1.00  0.00    -0.343 OA
BRANCH  21  22
HETATM   22  C6  UNL     1      26.398   1.623  53.578  1.00  0.00     0.214 C 
BRANCH  22  23
HETATM   23  C5  UNL     1      27.524   0.612  53.475  1.00  0.00    -0.031 A 
HETATM   24  C4  UNL     1      28.751   1.147  53.774  1.00  0.00     0.009 A 
HETATM   25  C3  UNL     1      29.676   0.156  53.702  1.00  0.00     0.004 A 
HETATM   26  C2  UNL     1      29.710  -1.174  53.421  1.00  0.00     0.042 A 
HETATM   27  C1  UNL     1      28.349  -1.585  53.123  1.00  0.00     0.117 A 
HETATM   28  F1  UNL     1      28.207  -2.903  52.818  1.00  0.00    -0.206 F 
HETATM   29  C22 UNL     1      27.254  -0.715  53.144  1.00  0.00     0.051 A 
ENDBRANCH  22  23
ENDBRANCH  21  22
ENDBRANCH   1  21
TORSDOF 7
ENDMDL
MODEL 9
REMARK VINA RESULT:      -7.0      4.724      7.620
REMARK  7 active torsions:
REMARK  status: ('A' for Active; 'I' for Inactive)
REMARK    1  A    between atoms: C5_6  and  C6_7 
REMARK    2  A    between atoms: C6_7  and  O1_8 
REMARK    3  A    between atoms: O1_8  and  C7_9 
REMARK    4  A    between atoms: C9_12  and  N1_13 
REMARK    5  A    between atoms: N1_13  and  C10_14 
REMARK    6  A    between atoms: C15_19  and  C16_20 
REMARK    7  A    between atoms: C17_21  and  C18_22 
ROOT
HETATM    1  C7  UNL     1      23.893   0.710  52.848  1.00  0.00     0.112 A 
HETATM    2  C8  UNL     1      24.226   1.479  51.750  1.00  0.00     0.176 A 
HETATM    3  O2  UNL     1      23.395   1.579  50.685  1.00  0.00    -0.332 OA
HETATM    4  C9  UNL     1      22.058   0.996  50.636  1.00  0.00     0.252 A 
HETATM    5  C20 UNL     1      21.886   0.200  51.861  1.00  0.00     0.053 A 
HETATM    6  C21 UNL     1      22.608  -0.036  52.962  1.00  0.00     0.069 A 
HETATM    7 CL1  UNL     1      22.793  -0.814  54.488  1.00  0.00    -0.081 Cl
ENDROOT
BRANCH   4   8
HETATM    8  N1  UNL     1      21.086   2.013  50.486  1.00  0.00    -0.359 N 
HETATM    9  H8  UNL     1      21.919   2.589  50.147  1.00  0.00     0.162 HD
BRANCH   8  10
HETATM   10  C10 UNL     1      20.115   3.028  50.336  1.00  0.00     0.049 A 
HETATM   11  C11 UNL     1      20.226   4.298  49.891  1.00  0.00     0.031 A 
HETATM   12  C12 UNL     1      19.301   5.298  49.835  1.00  0.00     0.002 A 
HETATM   13  C13 UNL     1      18.074   4.823  50.355  1.00  0.00     0.002 A 
HETATM   14  C14 UNL     1      17.917   3.577  50.799  1.00  0.00     0.023 A 
HETATM   15  C15 UNL     1      18.872   2.580  50.838  1.00  0.00     0.044 A 
BRANCH  15  16
HETATM   16  C16 UNL     1      18.447   1.316  51.254  1.00  0.00    -0.062 C 
HETATM   17  C17 UNL     1      18.077   0.221  51.636  1.00  0.00    -0.068 C 
BRANCH  17  18
HETATM   18  C18 UNL     1      17.644  -1.089  52.070  1.00  0.00     0.226 A 
HETATM   19  C19 UNL     1      16.425  -1.354  52.696  1.00  0.00     0.125 A 
HETATM   20  N2  UNL     1      17.463  -1.057  53.549  1.00  0.00    -0.280 NA
ENDBRANCH  17  18
ENDBRANCH  15  16
ENDBRANCH   8  10
ENDBRANCH   4   8
BRANCH   1  21
HETATM   21  O1  UNL     1      24.955   0.865  53.653  1.00  0.00    -0.343 OA
BRANCH  21  22
HETATM   22  C6  UNL     1      26.162   1.518  53.601  1.00  0.00     0.214 C 
BRANCH  22  23
HETATM   23  C5  UNL     1      27.316   0.541  53.481  1.00  0.00    -0.031 A 
HETATM   24  C4  UNL     1      28.527   1.105  53.790  1.00  0.00     0.009 A 
HETATM   25  C3  UNL     1      29.480   0.142  53.701  1.00  0.00     0.004 A 
HETATM   26  C2  UNL     1      29.550  -1.182  53.398  1.00  0.00     0.042 A 
HETATM   27  C1  UNL     1      28.202  -1.625  53.093  1.00  0.00     0.117 A 
HETATM   28  F1  UNL     1      28.096  -2.942  52.766  1.00  0.00    -0.206 F 
HETATM   29  C22 UNL     1      27.082  -0.787  53.129  1.00  0.00     0.051 A 
ENDBRANCH  22  23
ENDBRANCH  21  22
ENDBRANCH   1  21
TORSDOF 7
ENDMDL
