MODEL 1
REMARK VINA RESULT:      -8.9      0.000      0.000
REMARK  2 active torsions:
REMARK  status: ('A' for Active; 'I' for Inactive)
REMARK    1  A    between atoms: C2_2  and  C3_3 
REMARK    2  A    between atoms: C3_3  and  C4_4 
ROOT
HETATM    1  C3  UNL     1      26.400   0.873  53.242  1.00  0.00     0.258 C 
HETATM    2  N1  UNL     1      26.281   1.383  51.884  1.00  0.00     0.117 N 
HETATM    3  C10 UNL     1      25.351   2.489  51.972  1.00  0.00     0.278 C 
HETATM    4  C11 UNL     1      24.336   2.284  50.884  1.00  0.00     0.070 C 
HETATM    5  C12 UNL     1      23.197   1.450  51.351  1.00  0.00    -0.033 A 
HETATM    6  C13 UNL     1      22.128   1.703  50.415  1.00  0.00     0.060 A 
HETATM    7  S1  UNL     1      20.711   0.637  51.071  1.00  0.00    -0.081 SA
HETATM    8  C14 UNL     1      21.694  -0.031  52.516  1.00  0.00     0.113 A 
HETATM    9  N2  UNL     1      21.380  -0.876  53.484  1.00  0.00    -0.234 NA
HETATM   10  C15 UNL     1      22.218  -1.242  54.440  1.00  0.00     0.236 A 
HETATM   11  N3  UNL     1      23.399  -0.659  54.307  1.00  0.00    -0.224 NA
HETATM   12  C16 UNL     1      23.819   0.192  53.391  1.00  0.00     0.140 A 
HETATM   13  C17 UNL     1      22.999   0.603  52.384  1.00  0.00     0.052 A 
HETATM   14  N4  UNL     1      25.171   0.425  53.810  1.00  0.00    -0.336 N 
HETATM   15  H11 UNL     1      25.948   0.597  51.295  1.00  0.00     0.319 HD
HETATM   16  H18 UNL     1      25.352   0.218  54.828  1.00  0.00     0.164 HD
ENDROOT
BRANCH   1  17
HETATM   17  C2  UNL     1      27.055   1.982  54.027  1.00  0.00     0.065 C 
HETATM   18  C1  UNL     1      28.318   2.481  53.386  1.00  0.00     0.010 C 
ENDBRANCH   1  17
BRANCH   1  19
HETATM   19  C4  UNL     1      27.368  -0.253  53.222  1.00  0.00     0.000 A 
HETATM   20  C5  UNL     1      26.958  -1.489  52.744  1.00  0.00     0.011 A 
HETATM   21  C6  UNL     1      27.725  -2.633  52.658  1.00  0.00     0.001 A 
HETATM   22  C7  UNL     1      29.032  -2.526  53.093  1.00  0.00     0.000 A 
HETATM   23  C8  UNL     1      29.498  -1.324  53.579  1.00  0.00     0.001 A 
HETATM   24  C9  UNL     1      28.686  -0.213  53.642  1.00  0.00     0.011 A 
ENDBRANCH   1  19
TORSDOF 2
ENDMDL
MODEL 2
REMARK VINA RESULT:      -8.5      3.563      5.719
REMARK  2 active torsions:
REMARK  status: ('A' for Active; 'I' for Inactive)
REMARK    1  A    between atoms: C2_2  and  C3_3 
REMARK    2  A    between atoms: C3_3  and  C4_4 
ROOT
HETATM    1  C3  UNL     1      24.533   2.463  51.568  1.00  0.00     0.258 C 
HETATM    2  N1  UNL     1      23.854   3.426  52.421  1.00  0.00     0.117 N 
HETATM    3  C10 UNL     1      22.950   4.141  51.545  1.00  0.00     0.278 C 
HETATM    4  C11 UNL     1      23.160   5.604  51.812  1.00  0.00     0.070 C 
HETATM    5  C12 UNL     1      24.238   6.165  50.955  1.00  0.00    -0.033 A 
HETATM    6  C13 UNL     1      24.034   7.594  50.970  1.00  0.00     0.060 A 
HETATM    7  S1  UNL     1      25.414   8.244  49.853  1.00  0.00    -0.081 SA
HETATM    8  C14 UNL     1      26.113   6.547  49.488  1.00  0.00     0.113 A 
HETATM    9  N2  UNL     1      27.134   6.151  48.749  1.00  0.00    -0.234 NA
HETATM   10  C15 UNL     1      27.491   4.885  48.604  1.00  0.00     0.236 A 
HETATM   11  N3  UNL     1      26.701   4.072  49.287  1.00  0.00    -0.224 NA
HETATM   12  C16 UNL     1      25.662   4.352  50.051  1.00  0.00     0.140 A 
HETATM   13  C17 UNL     1      25.252   5.638  50.235  1.00  0.00     0.052 A 
HETATM   14  N4  UNL     1      25.266   3.046  50.493  1.00  0.00    -0.336 N 
HETATM   15  H11 UNL     1      24.587   4.022  52.848  1.00  0.00     0.319 HD
HETATM   16  H18 UNL     1      25.589   2.260  49.869  1.00  0.00     0.164 HD
ENDROOT
BRANCH   1  17
HETATM   17  C2  UNL     1      23.459   1.507  51.113  1.00  0.00     0.065 C 
HETATM   18  C1  UNL     1      22.733   0.861  52.258  1.00  0.00     0.010 C 
ENDBRANCH   1  17
BRANCH   1  19
HETATM   19  C4  UNL     1      25.460   1.675  52.420  1.00  0.00     0.000 A 
HETATM   20  C5  UNL     1      26.148   0.607  51.862  1.00  0.00     0.011 A 
HETATM   21  C6  UNL     1      27.040  -0.223  52.509  1.00  0.00     0.001 A 
HETATM   22  C7  UNL     1      27.266   0.044  53.845  1.00  0.00     0.000 A 
HETATM   23  C8  UNL     1      26.612   1.091  54.456  1.00  0.00     0.001 A 
HETATM   24  C9  UNL     1      25.730   1.889  53.760  1.00  0.00     0.011 A 
ENDBRANCH   1  19
TORSDOF 2
ENDMDL
MODEL 3
REMARK VINA RESULT:      -8.4      3.768      6.035
REMARK  2 active torsions:
REMARK  status: ('A' for Active; 'I' for Inactive)
REMARK    1  A    between atoms: C2_2  and  C3_3 
REMARK    2  A    between atoms: C3_3  and  C4_4 
ROOT
HETATM    1  C3  UNL     1      22.166   2.148  51.430  1.00  0.00     0.258 C 
HETATM    2  N1  UNL     1      21.622   3.311  52.115  1.00  0.00     0.117 N 
HETATM    3  C10 UNL     1      21.263   4.239  51.063  1.00  0.00     0.278 C 
HETATM    4  C11 UNL     1      21.846   5.570  51.448  1.00  0.00     0.070 C 
HETATM    5  C12 UNL     1      23.235   5.724  50.941  1.00  0.00    -0.033 A 
HETATM    6  C13 UNL     1      23.498   7.142  50.970  1.00  0.00     0.060 A 
HETATM    7  S1  UNL     1      25.261   7.274  50.300  1.00  0.00    -0.081 SA
HETATM    8  C14 UNL     1      25.457   5.429  50.055  1.00  0.00     0.113 A 
HETATM    9  N2  UNL     1      26.461   4.700  49.599  1.00  0.00    -0.234 NA
HETATM   10  C15 UNL     1      26.424   3.382  49.495  1.00  0.00     0.236 A 
HETATM   11  N3  UNL     1      25.263   2.891  49.899  1.00  0.00    -0.224 NA
HETATM   12  C16 UNL     1      24.201   3.517  50.367  1.00  0.00     0.140 A 
HETATM   13  C17 UNL     1      24.185   4.873  50.496  1.00  0.00     0.052 A 
HETATM   14  N4  UNL     1      23.308   2.424  50.622  1.00  0.00    -0.336 N 
HETATM   15  H11 UNL     1      22.361   3.660  52.752  1.00  0.00     0.319 HD
HETATM   16  H18 UNL     1      23.522   1.550  50.071  1.00  0.00     0.164 HD
ENDROOT
BRANCH   1  17
HETATM   17  C2  UNL     1      21.010   1.564  50.657  1.00  0.00     0.065 C 
HETATM   18  C1  UNL     1      21.430   0.969  49.344  1.00  0.00     0.010 C 
ENDBRANCH   1  17
BRANCH   1  19
HETATM   19  C4  UNL     1      22.529   1.142  52.461  1.00  0.00     0.000 A 
HETATM   20  C5  UNL     1      21.543   0.657  53.309  1.00  0.00     0.011 A 
HETATM   21  C6  UNL     1      21.709  -0.273  54.315  1.00  0.00     0.001 A 
HETATM   22  C7  UNL     1      22.988  -0.766  54.487  1.00  0.00     0.000 A 
HETATM   23  C8  UNL     1      24.009  -0.323  53.675  1.00  0.00     0.001 A 
HETATM   24  C9  UNL     1      23.786   0.609  52.685  1.00  0.00     0.011 A 
ENDBRANCH   1  19
TORSDOF 2
ENDMDL
MODEL 4
REMARK VINA RESULT:      -8.2      4.515      7.079
REMARK  2 active torsions:
REMARK  status: ('A' for Active; 'I' for Inactive)
REMARK    1  A    between atoms: C2_2  and  C3_3 
REMARK    2  A    between atoms: C3_3  and  C4_4 
ROOT
HETATM    1  C3  UNL     1      24.460   3.059  50.593  1.00  0.00     0.258 C 
HETATM    2  N1  UNL     1      25.491   2.900  49.578  1.00  0.00     0.117 N 
HETATM    3  C10 UNL     1      26.652   3.586  50.103  1.00  0.00     0.278 C 
HETATM    4  C11 UNL     1      27.157   4.477  49.004  1.00  0.00     0.070 C 
HETATM    5  C12 UNL     1      26.504   5.812  49.041  1.00  0.00    -0.033 A 
HETATM    6  C13 UNL     1      27.363   6.681  48.273  1.00  0.00     0.060 A 
HETATM    7  S1  UNL     1      26.494   8.357  48.374  1.00  0.00    -0.081 SA
HETATM    8  C14 UNL     1      25.082   7.721  49.424  1.00  0.00     0.113 A 
HETATM    9  N2  UNL     1      24.019   8.320  49.932  1.00  0.00    -0.234 NA
HETATM   10  C15 UNL     1      23.106   7.702  50.664  1.00  0.00     0.236 A 
HETATM   11  N3  UNL     1      23.392   6.419  50.823  1.00  0.00    -0.224 NA
HETATM   12  C16 UNL     1      24.415   5.722  50.368  1.00  0.00     0.140 A 
HETATM   13  C17 UNL     1      25.383   6.308  49.610  1.00  0.00     0.052 A 
HETATM   14  N4  UNL     1      24.127   4.414  50.883  1.00  0.00    -0.336 N 
HETATM   15  H11 UNL     1      25.118   3.309  48.702  1.00  0.00     0.319 HD
HETATM   16  H18 UNL     1      23.487   4.409  51.721  1.00  0.00     0.164 HD
ENDROOT
BRANCH   1  17
HETATM   17  C2  UNL     1      24.961   2.294  51.793  1.00  0.00     0.065 C 
HETATM   18  C1  UNL     1      24.594   2.947  53.094  1.00  0.00     0.010 C 
ENDBRANCH   1  17
BRANCH   1  19
HETATM   19  C4  UNL     1      23.245   2.347  50.123  1.00  0.00     0.000 A 
HETATM   20  C5  UNL     1      22.771   2.593  48.841  1.00  0.00     0.011 A 
HETATM   21  C6  UNL     1      21.662   2.021  48.252  1.00  0.00     0.001 A 
HETATM   22  C7  UNL     1      20.959   1.114  49.022  1.00  0.00     0.000 A 
HETATM   23  C8  UNL     1      21.381   0.829  50.302  1.00  0.00     0.001 A 
HETATM   24  C9  UNL     1      22.497   1.430  50.840  1.00  0.00     0.011 A 
ENDBRANCH   1  19
TORSDOF 2
ENDMDL
MODEL 5
REMARK VINA RESULT:      -8.0      3.524      5.158
REMARK  2 active torsions:
REMARK  status: ('A' for Active; 'I' for Inactive)
REMARK    1  A    between atoms: C2_2  and  C3_3 
REMARK    2  A    between atoms: C3_3  and  C4_4 
ROOT
HETATM    1  C3  UNL     1      22.738   2.177  52.149  1.00  0.00     0.258 C 
HETATM    2  N1  UNL     1      23.199   1.644  50.876  1.00  0.00     0.117 N 
HETATM    3  C10 UNL     1      23.340   2.795  50.009  1.00  0.00     0.278 C 
HETATM    4  C11 UNL     1      22.639   2.453  48.725  1.00  0.00     0.070 C 
HETATM    5  C12 UNL     1      21.200   2.822  48.775  1.00  0.00    -0.033 A 
HETATM    6  C13 UNL     1      20.770   2.873  47.398  1.00  0.00     0.060 A 
HETATM    7  S1  UNL     1      18.948   3.363  47.527  1.00  0.00    -0.081 SA
HETATM    8  C14 UNL     1      18.955   3.445  49.396  1.00  0.00     0.113 A 
HETATM    9  N2  UNL     1      18.009   3.736  50.272  1.00  0.00    -0.234 NA
HETATM   10  C15 UNL     1      18.197   3.744  51.582  1.00  0.00     0.236 A 
HETATM   11  N3  UNL     1      19.442   3.427  51.901  1.00  0.00    -0.224 NA
HETATM   12  C16 UNL     1      20.459   3.122  51.119  1.00  0.00     0.140 A 
HETATM   13  C17 UNL     1      20.322   3.098  49.764  1.00  0.00     0.052 A 
HETATM   14  N4  UNL     1      21.499   2.879  52.077  1.00  0.00    -0.336 N 
HETATM   15  H11 UNL     1      22.487   0.961  50.559  1.00  0.00     0.319 HD
HETATM   16  H18 UNL     1      21.342   3.337  53.014  1.00  0.00     0.164 HD
ENDROOT
BRANCH   1  17
HETATM   17  C2  UNL     1      23.878   3.021  52.664  1.00  0.00     0.065 C 
HETATM   18  C1  UNL     1      23.456   4.420  53.009  1.00  0.00     0.010 C 
ENDBRANCH   1  17
BRANCH   1  19
HETATM   19  C4  UNL     1      22.600   1.041  53.095  1.00  0.00     0.000 A 
HETATM   20  C5  UNL     1      23.716   0.272  53.396  1.00  0.00     0.011 A 
HETATM   21  C6  UNL     1      23.761  -0.812  54.247  1.00  0.00     0.001 A 
HETATM   22  C7  UNL     1      22.572  -1.160  54.859  1.00  0.00     0.000 A 
HETATM   23  C8  UNL     1      21.430  -0.434  54.601  1.00  0.00     0.001 A 
HETATM   24  C9  UNL     1      21.443   0.641  53.740  1.00  0.00     0.011 A 
ENDBRANCH   1  19
TORSDOF 2
ENDMDL
MODEL 6
REMARK VINA RESULT:      -8.0      3.929      6.178
REMARK  2 active torsions:
REMARK  status: ('A' for Active; 'I' for Inactive)
REMARK    1  A    between atoms: C2_2  and  C3_3 
REMARK    2  A    between atoms: C3_3  and  C4_4 
ROOT
HETATM    1  C3  UNL     1      24.360   5.698  49.352  1.00  0.00     0.258 C 
HETATM    2  N1  UNL     1      23.586   5.175  48.236  1.00  0.00     0.117 N 
HETATM    3  C10 UNL     1      22.214   5.159  48.698  1.00  0.00     0.278 C 
HETATM    4  C11 UNL     1      21.668   3.797  48.376  1.00  0.00     0.070 C 
HETATM    5  C12 UNL     1      21.921   2.834  49.481  1.00  0.00    -0.033 A 
HETATM    6  C13 UNL     1      20.992   1.751  49.265  1.00  0.00     0.060 A 
HETATM    7  S1  UNL     1      21.347   0.577  50.703  1.00  0.00    -0.081 SA
HETATM    8  C14 UNL     1      22.693   1.652  51.435  1.00  0.00     0.113 A 
HETATM    9  N2  UNL     1      23.460   1.505  52.501  1.00  0.00    -0.234 NA
HETATM   10  C15 UNL     1      24.378   2.383  52.873  1.00  0.00     0.236 A 
HETATM   11  N3  UNL     1      24.428   3.418  52.050  1.00  0.00    -0.224 NA
HETATM   12  C16 UNL     1      23.718   3.668  50.967  1.00  0.00     0.140 A 
HETATM   13  C17 UNL     1      22.761   2.799  50.539  1.00  0.00     0.052 A 
HETATM   14  N4  UNL     1      24.264   4.926  50.546  1.00  0.00    -0.336 N 
HETATM   15  H11 UNL     1      23.968   4.236  48.017  1.00  0.00     0.319 HD
HETATM   16  H18 UNL     1      24.740   5.472  51.313  1.00  0.00     0.164 HD
ENDROOT
BRANCH   1  17
HETATM   17  C2  UNL     1      23.901   7.125  49.520  1.00  0.00     0.065 C 
HETATM   18  C1  UNL     1      23.767   7.526  50.961  1.00  0.00     0.010 C 
ENDBRANCH   1  17
BRANCH   1  19
HETATM   19  C4  UNL     1      25.782   5.765  48.927  1.00  0.00     0.000 A 
HETATM   20  C5  UNL     1      26.267   6.941  48.372  1.00  0.00     0.011 A 
HETATM   21  C6  UNL     1      27.553   7.169  47.927  1.00  0.00     0.001 A 
HETATM   22  C7  UNL     1      28.440   6.117  48.051  1.00  0.00     0.000 A 
HETATM   23  C8  UNL     1      28.017   4.924  48.595  1.00  0.00     0.001 A 
HETATM   24  C9  UNL     1      26.719   4.751  49.024  1.00  0.00     0.011 A 
ENDBRANCH   1  19
TORSDOF 2
ENDMDL
MODEL 7
REMARK VINA RESULT:      -7.9      2.884      6.118
REMARK  2 active torsions:
REMARK  status: ('A' for Active; 'I' for Inactive)
REMARK    1  A    between atoms: C2_2  and  C3_3 
REMARK    2  A    between atoms: C3_3  and  C4_4 
ROOT
HETATM    1  C3  UNL     1      24.211   3.442  50.508  1.00  0.00     0.258 C 
HETATM    2  N1  UNL     1      25.475   3.682  51.187  1.00  0.00     0.117 N 
HETATM    3  C10 UNL     1      26.276   2.503  50.931  1.00  0.00     0.278 C 
HETATM    4  C11 UNL     1      26.829   2.065  52.257  1.00  0.00     0.070 C 
HETATM    5  C12 UNL     1      25.902   1.134  52.954  1.00  0.00    -0.033 A 
HETATM    6  C13 UNL     1      26.709   0.457  53.940  1.00  0.00     0.060 A 
HETATM    7  S1  UNL     1      25.486  -0.719  54.774  1.00  0.00    -0.081 SA
HETATM    8  C14 UNL     1      24.035  -0.182  53.722  1.00  0.00     0.113 A 
HETATM    9  N2  UNL     1      22.769  -0.563  53.701  1.00  0.00    -0.234 NA
HETATM   10  C15 UNL     1      21.865  -0.064  52.874  1.00  0.00     0.236 A 
HETATM   11  N3  UNL     1      22.384   0.855  52.077  1.00  0.00    -0.224 NA
HETATM   12  C16 UNL     1      23.620   1.310  52.009  1.00  0.00     0.140 A 
HETATM   13  C17 UNL     1      24.591   0.832  52.836  1.00  0.00     0.052 A 
HETATM   14  N4  UNL     1      23.515   2.282  50.959  1.00  0.00    -0.336 N 
HETATM   15  H11 UNL     1      25.257   3.836  52.189  1.00  0.00     0.319 HD
HETATM   16  H18 UNL     1      22.700   2.131  50.307  1.00  0.00     0.164 HD
ENDROOT
BRANCH   1  17
HETATM   17  C2  UNL     1      24.547   3.407  49.039  1.00  0.00     0.065 C 
HETATM   18  C1  UNL     1      23.394   2.960  48.188  1.00  0.00     0.010 C 
ENDBRANCH   1  17
BRANCH   1  19
HETATM   19  C4  UNL     1      23.352   4.636  50.711  1.00  0.00     0.000 A 
HETATM   20  C5  UNL     1      23.916   5.900  50.610  1.00  0.00     0.011 A 
HETATM   21  C6  UNL     1      23.264   7.106  50.770  1.00  0.00     0.001 A 
HETATM   22  C7  UNL     1      21.915   7.038  51.058  1.00  0.00     0.000 A 
HETATM   23  C8  UNL     1      21.298   5.812  51.172  1.00  0.00     0.001 A 
HETATM   24  C9  UNL     1      21.999   4.638  51.002  1.00  0.00     0.011 A 
ENDBRANCH   1  19
TORSDOF 2
ENDMDL
MODEL 8
REMARK VINA RESULT:      -7.7      9.316     11.931
REMARK  2 active torsions:
REMARK  status: ('A' for Active; 'I' for Inactive)
REMARK    1  A    between atoms: C2_2  and  C3_3 
REMARK    2  A    between atoms: C3_3  and  C4_4 
ROOT
HETATM    1  C3  UNL     1      30.819   6.277  47.831  1.00  0.00     0.258 C 
HETATM    2  N1  UNL     1      31.208   4.927  47.452  1.00  0.00     0.117 N 
HETATM    3  C10 UNL     1      32.643   4.981  47.266  1.00  0.00     0.278 C 
HETATM    4  C11 UNL     1      32.930   4.328  45.944  1.00  0.00     0.070 C 
HETATM    5  C12 UNL     1      32.872   5.309  44.828  1.00  0.00    -0.033 A 
HETATM    6  C13 UNL     1      33.585   4.690  43.737  1.00  0.00     0.060 A 
HETATM    7  S1  UNL     1      33.494   5.986  42.363  1.00  0.00    -0.081 SA
HETATM    8  C14 UNL     1      32.517   7.209  43.388  1.00  0.00     0.113 A 
HETATM    9  N2  UNL     1      32.047   8.415  43.115  1.00  0.00    -0.234 NA
HETATM   10  C15 UNL     1      31.364   9.149  43.977  1.00  0.00     0.236 A 
HETATM   11  N3  UNL     1      31.213   8.531  45.138  1.00  0.00    -0.224 NA
HETATM   12  C16 UNL     1      31.636   7.340  45.518  1.00  0.00     0.140 A 
HETATM   13  C17 UNL     1      32.343   6.542  44.671  1.00  0.00     0.052 A 
HETATM   14  N4  UNL     1      31.141   7.273  46.863  1.00  0.00    -0.336 N 
HETATM   15  H11 UNL     1      30.680   4.690  46.592  1.00  0.00     0.319 HD
HETATM   16  H18 UNL     1      30.948   8.212  47.302  1.00  0.00     0.164 HD
ENDROOT
BRANCH   1  17
HETATM   17  C2  UNL     1      31.462   6.514  49.174  1.00  0.00     0.065 C 
HETATM   18  C1  UNL     1      31.843   7.950  49.391  1.00  0.00     0.010 C 
ENDBRANCH   1  17
BRANCH   1  19
HETATM   19  C4  UNL     1      29.353   6.279  48.064  1.00  0.00     0.000 A 
HETATM   20  C5  UNL     1      28.726   5.099  48.441  1.00  0.00     0.011 A 
HETATM   21  C6  UNL     1      27.381   4.928  48.695  1.00  0.00     0.001 A 
HETATM   22  C7  UNL     1      26.585   6.049  48.557  1.00  0.00     0.000 A 
HETATM   23  C8  UNL     1      27.149   7.249  48.184  1.00  0.00     0.001 A 
HETATM   24  C9  UNL     1      28.501   7.363  47.944  1.00  0.00     0.011 A 
ENDBRANCH   1  19
TORSDOF 2
ENDMDL
MODEL 9
REMARK VINA RESULT:      -7.7      3.282      6.296
REMARK  2 active torsions:
REMARK  status: ('A' for Active; 'I' for Inactive)
REMARK    1  A    between atoms: C2_2  and  C3_3 
REMARK    2  A    between atoms: C3_3  and  C4_4 
ROOT
HETATM    1  C3  UNL     1      23.046   3.144  50.560  1.00  0.00     0.258 C 
HETATM    2  N1  UNL     1      24.025   2.907  51.611  1.00  0.00     0.117 N 
HETATM    3  C10 UNL     1      24.417   1.521  51.462  1.00  0.00     0.278 C 
HETATM    4  C11 UNL     1      24.329   0.901  52.827  1.00  0.00     0.070 C 
HETATM    5  C12 UNL     1      22.969   0.360  53.093  1.00  0.00    -0.033 A 
HETATM    6  C13 UNL     1      23.134  -0.570  54.183  1.00  0.00     0.060 A 
HETATM    7  S1  UNL     1      21.386  -1.235  54.459  1.00  0.00    -0.081 SA
HETATM    8  C14 UNL     1      20.625  -0.203  53.097  1.00  0.00     0.113 A 
HETATM    9  N2  UNL     1      19.385  -0.102  52.650  1.00  0.00    -0.234 NA
HETATM   10  C15 UNL     1      19.022   0.695  51.659  1.00  0.00     0.236 A 
HETATM   11  N3  UNL     1      20.050   1.374  51.175  1.00  0.00    -0.224 NA
HETATM   12  C16 UNL     1      21.318   1.354  51.537  1.00  0.00     0.140 A 
HETATM   13  C17 UNL     1      21.747   0.551  52.551  1.00  0.00     0.052 A 
HETATM   14  N4  UNL     1      21.894   2.308  50.634  1.00  0.00    -0.336 N 
HETATM   15  H11 UNL     1      23.560   3.120  52.512  1.00  0.00     0.319 HD
HETATM   16  H18 UNL     1      21.334   2.466  49.754  1.00  0.00     0.164 HD
ENDROOT
BRANCH   1  17
HETATM   17  C2  UNL     1      23.809   3.003  49.266  1.00  0.00     0.065 C 
HETATM   18  C1  UNL     1      22.928   2.623  48.111  1.00  0.00     0.010 C 
ENDBRANCH   1  17
BRANCH   1  19
HETATM   19  C4  UNL     1      22.625   4.565  50.644  1.00  0.00     0.000 A 
HETATM   20  C5  UNL     1      23.593   5.552  50.765  1.00  0.00     0.011 A 
HETATM   21  C6  UNL     1      23.374   6.911  50.856  1.00  0.00     0.001 A 
HETATM   22  C7  UNL     1      22.056   7.322  50.819  1.00  0.00     0.000 A 
HETATM   23  C8  UNL     1      21.049   6.389  50.700  1.00  0.00     0.001 A 
HETATM   24  C9  UNL     1      21.326   5.042  50.613  1.00  0.00     0.011 A 
ENDBRANCH   1  19
TORSDOF 2
ENDMDL
