MODEL 1
REMARK VINA RESULT:      -8.1      0.000      0.000
REMARK  5 active torsions:
REMARK  status: ('A' for Active; 'I' for Inactive)
REMARK    1  A    between atoms: C2_2  and  C3_3 
REMARK    2  A    between atoms: C5_7  and  C6_8 
REMARK    3  A    between atoms: C6_8  and  C7_9 
REMARK    4  A    between atoms: C7_9  and  C8_10 
REMARK    5  A    between atoms: C17_21  and  N4_22 
ROOT
HETATM    1  C3  UNL     1      24.380   4.678  50.649  1.00  0.00     0.097 C 
HETATM    2  C4  UNL     1      25.583   5.191  49.922  1.00  0.00     0.043 C 
HETATM    3  N1  UNL     1      24.766   4.054  51.895  1.00  0.00    -0.183 NA
HETATM    4  O1  UNL     1      25.506   2.957  51.847  1.00  0.00    -0.267 OA
HETATM    5  C5  UNL     1      24.788   1.738  51.836  1.00  0.00     0.070 C 
HETATM    6  C13 UNL     1      23.502   1.386  51.840  1.00  0.00     0.034 C 
HETATM    7  C14 UNL     1      22.122   1.859  51.856  1.00  0.00     0.000 C 
HETATM    8  C15 UNL     1      21.634   3.126  51.887  1.00  0.00    -0.008 C 
HETATM    9  C16 UNL     1      21.404   4.583  51.924  1.00  0.00     0.143 C 
HETATM   10  N3  UNL     1      22.462   5.459  52.017  1.00  0.00    -0.389 N 
HETATM   11  C17 UNL     1      23.451   5.805  51.139  1.00  0.00     0.341 C 
HETATM   12  H7  UNL     1      25.083   4.806  52.537  1.00  0.00     0.155 HD
HETATM   13  H21 UNL     1      22.323   6.222  52.727  1.00  0.00     0.155 HD
ENDROOT
BRANCH   5  14
HETATM   14  C6  UNL     1      25.934   0.801  51.818  1.00  0.00     0.071 C 
BRANCH  14  15
HETATM   15  C7  UNL     1      25.775  -0.334  52.829  1.00  0.00     0.046 C 
BRANCH  15  16
HETATM   16  C8  UNL     1      27.110  -0.937  53.035  1.00  0.00    -0.040 A 
HETATM   17  C9  UNL     1      28.185  -0.165  53.435  1.00  0.00     0.010 A 
HETATM   18  C10 UNL     1      29.455  -0.689  53.639  1.00  0.00     0.020 A 
HETATM   19  C11 UNL     1      29.584  -2.059  53.414  1.00  0.00     0.116 A 
HETATM   20  N2  UNL     1      28.554  -2.825  53.025  1.00  0.00    -0.273 NA
HETATM   21  C12 UNL     1      27.325  -2.290  52.832  1.00  0.00     0.123 A 
ENDBRANCH  15  16
ENDBRANCH  14  15
ENDBRANCH   5  14
BRANCH   1  22
HETATM   22  C2  UNL     1      23.655   3.750  49.764  1.00  0.00    -0.006 C 
HETATM   23  C1  UNL     1      23.255   4.311  48.629  1.00  0.00     0.009 C 
ENDBRANCH   1  22
BRANCH  11  24
HETATM   24  N4  UNL     1      24.378   6.708  51.859  1.00  0.00     0.103 N 
HETATM   25  H23 UNL     1      24.442   7.627  51.361  1.00  0.00     0.315 HD
HETATM   26  H24 UNL     1      25.304   6.282  51.996  1.00  0.00     0.315 HD
ENDBRANCH  11  24
TORSDOF 5
ENDMDL
MODEL 2
REMARK VINA RESULT:      -8.1      6.908     10.150
REMARK  5 active torsions:
REMARK  status: ('A' for Active; 'I' for Inactive)
REMARK    1  A    between atoms: C2_2  and  C3_3 
REMARK    2  A    between atoms: C5_7  and  C6_8 
REMARK    3  A    between atoms: C6_8  and  C7_9 
REMARK    4  A    between atoms: C7_9  and  C8_10 
REMARK    5  A    between atoms: C17_21  and  N4_22 
ROOT
HETATM    1  C3  UNL     1      32.953   4.063  47.384  1.00  0.00     0.097 C 
HETATM    2  C4  UNL     1      32.106   3.076  46.646  1.00  0.00     0.043 C 
HETATM    3  N1  UNL     1      32.322   4.447  48.627  1.00  0.00    -0.183 NA
HETATM    4  O1  UNL     1      31.175   5.105  48.574  1.00  0.00    -0.267 OA
HETATM    5  C5  UNL     1      31.282   6.516  48.570  1.00  0.00     0.070 C 
HETATM    6  C13 UNL     1      32.281   7.400  48.586  1.00  0.00     0.034 C 
HETATM    7  C14 UNL     1      33.728   7.583  48.614  1.00  0.00     0.000 C 
HETATM    8  C15 UNL     1      34.724   6.661  48.649  1.00  0.00    -0.008 C 
HETATM    9  C16 UNL     1      35.573   5.454  48.686  1.00  0.00     0.143 C 
HETATM   10  N3  UNL     1      35.009   4.201  48.769  1.00  0.00    -0.389 N 
HETATM   11  C17 UNL     1      34.281   3.459  47.881  1.00  0.00     0.341 C 
HETATM   12  H7  UNL     1      32.364   3.629  49.265  1.00  0.00     0.155 HD
HETATM   13  H21 UNL     1      35.465   3.574  49.479  1.00  0.00     0.155 HD
ENDROOT
BRANCH   5  14
HETATM   14  C6  UNL     1      29.840   6.852  48.542  1.00  0.00     0.071 C 
BRANCH  14  15
HETATM   15  C7  UNL     1      29.004   5.775  47.850  1.00  0.00     0.046 C 
BRANCH  15  16
HETATM   16  C8  UNL     1      27.716   5.682  48.571  1.00  0.00    -0.040 A 
HETATM   17  C9  UNL     1      27.208   4.458  48.966  1.00  0.00     0.010 A 
HETATM   18  C10 UNL     1      26.004   4.324  49.643  1.00  0.00     0.020 A 
HETATM   19  C11 UNL     1      25.325   5.514  49.906  1.00  0.00     0.116 A 
HETATM   20  N2  UNL     1      25.800   6.711  49.530  1.00  0.00    -0.273 NA
HETATM   21  C12 UNL     1      26.978   6.815  48.870  1.00  0.00     0.123 A 
ENDBRANCH  15  16
ENDBRANCH  14  15
ENDBRANCH   5  14
BRANCH   1  22
HETATM   22  C2  UNL     1      33.202   5.220  46.507  1.00  0.00    -0.006 C 
HETATM   23  C1  UNL     1      32.949   4.973  45.226  1.00  0.00     0.009 C 
ENDBRANCH   1  22
BRANCH  11  24
HETATM   24  N4  UNL     1      33.841   2.236  48.592  1.00  0.00     0.103 N 
HETATM   25  H23 UNL     1      32.982   1.847  48.137  1.00  0.00     0.315 HD
HETATM   26  H24 UNL     1      33.699   2.404  49.597  1.00  0.00     0.315 HD
ENDBRANCH  11  24
TORSDOF 5
ENDMDL
MODEL 3
REMARK VINA RESULT:      -7.9      1.541      2.034
REMARK  5 active torsions:
REMARK  status: ('A' for Active; 'I' for Inactive)
REMARK    1  A    between atoms: C2_2  and  C3_3 
REMARK    2  A    between atoms: C5_7  and  C6_8 
REMARK    3  A    between atoms: C6_8  and  C7_9 
REMARK    4  A    between atoms: C7_9  and  C8_10 
REMARK    5  A    between atoms: C17_21  and  N4_22 
ROOT
HETATM    1  C3  UNL     1      22.945   2.846  51.328  1.00  0.00     0.097 C 
HETATM    2  C4  UNL     1      24.131   3.428  50.626  1.00  0.00     0.043 C 
HETATM    3  N1  UNL     1      23.261   2.559  52.709  1.00  0.00    -0.183 NA
HETATM    4  O1  UNL     1      24.173   1.634  52.968  1.00  0.00    -0.267 OA
HETATM    5  C5  UNL     1      23.676   0.322  53.148  1.00  0.00     0.070 C 
HETATM    6  C13 UNL     1      22.477  -0.261  53.105  1.00  0.00     0.034 C 
HETATM    7  C14 UNL     1      21.048  -0.065  52.887  1.00  0.00     0.000 C 
HETATM    8  C15 UNL     1      20.356   1.067  52.600  1.00  0.00    -0.008 C 
HETATM    9  C16 UNL     1      19.884   2.434  52.303  1.00  0.00     0.143 C 
HETATM   10  N3  UNL     1      20.760   3.496  52.307  1.00  0.00    -0.389 N 
HETATM   11  C17 UNL     1      21.784   3.848  51.474  1.00  0.00     0.341 C 
HETATM   12  H7  UNL     1      23.360   3.467  53.203  1.00  0.00     0.155 HD
HETATM   13  H21 UNL     1      20.402   4.341  52.821  1.00  0.00     0.155 HD
ENDROOT
BRANCH   5  14
HETATM   14  C6  UNL     1      24.955  -0.366  53.440  1.00  0.00     0.071 C 
BRANCH  14  15
HETATM   15  C7  UNL     1      25.998  -0.146  52.345  1.00  0.00     0.046 C 
BRANCH  15  16
HETATM   16  C8  UNL     1      27.208  -0.907  52.724  1.00  0.00    -0.040 A 
HETATM   17  C9  UNL     1      28.324  -0.264  53.228  1.00  0.00     0.010 A 
HETATM   18  C10 UNL     1      29.480  -0.939  53.596  1.00  0.00     0.020 A 
HETATM   19  C11 UNL     1      29.450  -2.323  53.426  1.00  0.00     0.116 A 
HETATM   20  N2  UNL     1      28.378  -2.965  52.938  1.00  0.00    -0.273 NA
HETATM   21  C12 UNL     1      27.261  -2.284  52.586  1.00  0.00     0.123 A 
ENDBRANCH  15  16
ENDBRANCH  14  15
ENDBRANCH   5  14
BRANCH   1  22
HETATM   22  C2  UNL     1      22.509   1.644  50.596  1.00  0.00    -0.006 C 
HETATM   23  C1  UNL     1      22.203   1.884  49.325  1.00  0.00     0.009 C 
ENDBRANCH   1  22
BRANCH  11  24
HETATM   24  N4  UNL     1      22.444   5.033  52.070  1.00  0.00     0.103 N 
HETATM   25  H23 UNL     1      22.200   5.105  53.086  1.00  0.00     0.315 HD
HETATM   26  H24 UNL     1      22.220   5.897  51.561  1.00  0.00     0.315 HD
ENDBRANCH  11  24
TORSDOF 5
ENDMDL
MODEL 4
REMARK VINA RESULT:      -7.8      1.370      1.845
REMARK  5 active torsions:
REMARK  status: ('A' for Active; 'I' for Inactive)
REMARK    1  A    between atoms: C2_2  and  C3_3 
REMARK    2  A    between atoms: C5_7  and  C6_8 
REMARK    3  A    between atoms: C6_8  and  C7_9 
REMARK    4  A    between atoms: C7_9  and  C8_10 
REMARK    5  A    between atoms: C17_21  and  N4_22 
ROOT
HETATM    1  C3  UNL     1      24.351   4.820  50.601  1.00  0.00     0.097 C 
HETATM    2  C4  UNL     1      25.734   4.629  50.066  1.00  0.00     0.043 C 
HETATM    3  N1  UNL     1      24.308   4.535  52.018  1.00  0.00    -0.183 NA
HETATM    4  O1  UNL     1      24.554   3.297  52.418  1.00  0.00    -0.267 OA
HETATM    5  C5  UNL     1      23.418   2.463  52.548  1.00  0.00     0.070 C 
HETATM    6  C13 UNL     1      22.107   2.594  52.344  1.00  0.00     0.034 C 
HETATM    7  C14 UNL     1      21.036   3.491  51.922  1.00  0.00     0.000 C 
HETATM    8  C15 UNL     1      21.089   4.786  51.521  1.00  0.00    -0.008 C 
HETATM    9  C16 UNL     1      21.453   6.164  51.137  1.00  0.00     0.143 C 
HETATM   10  N3  UNL     1      22.752   6.605  51.249  1.00  0.00    -0.389 N 
HETATM   11  C17 UNL     1      23.893   6.291  50.564  1.00  0.00     0.341 C 
HETATM   12  H7  UNL     1      24.819   5.296  52.506  1.00  0.00     0.155 HD
HETATM   13  H21 UNL     1      22.844   7.554  51.693  1.00  0.00     0.155 HD
ENDROOT
BRANCH   5  14
HETATM   14  C6  UNL     1      24.093   1.236  53.030  1.00  0.00     0.071 C 
BRANCH  14  15
HETATM   15  C7  UNL     1      25.222   0.789  52.102  1.00  0.00     0.046 C 
BRANCH  15  16
HETATM   16  C8  UNL     1      26.392   0.468  52.947  1.00  0.00    -0.040 A 
HETATM   17  C9  UNL     1      27.278  -0.531  52.587  1.00  0.00     0.010 A 
HETATM   18  C10 UNL     1      28.388  -0.866  53.350  1.00  0.00     0.020 A 
HETATM   19  C11 UNL     1      28.561  -0.123  54.519  1.00  0.00     0.116 A 
HETATM   20  N2  UNL     1      27.714   0.849  54.886  1.00  0.00    -0.273 NA
HETATM   21  C12 UNL     1      26.637   1.156  54.124  1.00  0.00     0.123 A 
ENDBRANCH  15  16
ENDBRANCH  14  15
ENDBRANCH   5  14
BRANCH   1  22
HETATM   22  C2  UNL     1      23.427   3.966  49.834  1.00  0.00    -0.006 C 
HETATM   23  C1  UNL     1      24.042   3.183  48.955  1.00  0.00     0.009 C 
ENDBRANCH   1  22
BRANCH  11  24
HETATM   24  N4  UNL     1      25.010   7.001  51.229  1.00  0.00     0.103 N 
HETATM   25  H23 UNL     1      24.915   6.923  52.269  1.00  0.00     0.315 HD
HETATM   26  H24 UNL     1      25.080   7.981  50.924  1.00  0.00     0.315 HD
ENDBRANCH  11  24
TORSDOF 5
ENDMDL
MODEL 5
REMARK VINA RESULT:      -7.7      2.749      3.974
REMARK  5 active torsions:
REMARK  status: ('A' for Active; 'I' for Inactive)
REMARK    1  A    between atoms: C2_2  and  C3_3 
REMARK    2  A    between atoms: C5_7  and  C6_8 
REMARK    3  A    between atoms: C6_8  and  C7_9 
REMARK    4  A    between atoms: C7_9  and  C8_10 
REMARK    5  A    between atoms: C17_21  and  N4_22 
ROOT
HETATM    1  C3  UNL     1      25.814   3.482  50.026  1.00  0.00     0.097 C 
HETATM    2  C4  UNL     1      26.535   2.483  49.177  1.00  0.00     0.043 C 
HETATM    3  N1  UNL     1      26.407   3.554  51.342  1.00  0.00    -0.183 NA
HETATM    4  O1  UNL     1      26.344   2.484  52.120  1.00  0.00    -0.267 OA
HETATM    5  C5  UNL     1      25.224   2.425  52.984  1.00  0.00     0.070 C 
HETATM    6  C13 UNL     1      24.156   3.186  53.218  1.00  0.00     0.034 C 
HETATM    7  C14 UNL     1      23.443   4.408  52.858  1.00  0.00     0.000 C 
HETATM    8  C15 UNL     1      23.758   5.367  51.950  1.00  0.00    -0.008 C 
HETATM    9  C16 UNL     1      24.352   6.232  50.913  1.00  0.00     0.143 C 
HETATM   10  N3  UNL     1      25.576   5.929  50.361  1.00  0.00    -0.389 N 
HETATM   11  C17 UNL     1      25.987   4.929  49.525  1.00  0.00     0.341 C 
HETATM   12  H7  UNL     1      27.335   4.008  51.243  1.00  0.00     0.155 HD
HETATM   13  H21 UNL     1      26.228   6.752  50.292  1.00  0.00     0.155 HD
ENDROOT
BRANCH   5  14
HETATM   14  C6  UNL     1      25.540   1.153  53.674  1.00  0.00     0.071 C 
BRANCH  14  15
HETATM   15  C7  UNL     1      25.024  -0.068  52.912  1.00  0.00     0.046 C 
BRANCH  15  16
HETATM   16  C8  UNL     1      23.731  -0.455  53.515  1.00  0.00    -0.040 A 
HETATM   17  C9  UNL     1      22.541  -0.241  52.844  1.00  0.00     0.010 A 
HETATM   18  C10 UNL     1      21.304  -0.588  53.372  1.00  0.00     0.020 A 
HETATM   19  C11 UNL     1      21.334  -1.175  54.637  1.00  0.00     0.116 A 
HETATM   20  N2  UNL     1      22.477  -1.390  55.305  1.00  0.00    -0.273 NA
HETATM   21  C12 UNL     1      23.671  -1.042  54.768  1.00  0.00     0.123 A 
ENDBRANCH  15  16
ENDBRANCH  14  15
ENDBRANCH   5  14
BRANCH   1  22
HETATM   22  C2  UNL     1      24.389   3.114  50.077  1.00  0.00    -0.006 C 
HETATM   23  C1  UNL     1      23.791   3.159  48.892  1.00  0.00     0.009 C 
ENDBRANCH   1  22
BRANCH  11  24
HETATM   24  N4  UNL     1      27.456   5.056  49.383  1.00  0.00     0.103 N 
HETATM   25  H23 UNL     1      27.841   4.218  48.886  1.00  0.00     0.315 HD
HETATM   26  H24 UNL     1      27.920   5.210  50.287  1.00  0.00     0.315 HD
ENDBRANCH  11  24
TORSDOF 5
ENDMDL
MODEL 6
REMARK VINA RESULT:      -7.4      5.116      8.112
REMARK  5 active torsions:
REMARK  status: ('A' for Active; 'I' for Inactive)
REMARK    1  A    between atoms: C2_2  and  C3_3 
REMARK    2  A    between atoms: C5_7  and  C6_8 
REMARK    3  A    between atoms: C6_8  and  C7_9 
REMARK    4  A    between atoms: C7_9  and  C8_10 
REMARK    5  A    between atoms: C17_21  and  N4_22 
ROOT
HETATM    1  C3  UNL     1      25.106   7.269  49.745  1.00  0.00     0.097 C 
HETATM    2  C4  UNL     1      24.189   8.447  49.845  1.00  0.00     0.043 C 
HETATM    3  N1  UNL     1      26.378   7.559  50.367  1.00  0.00    -0.183 NA
HETATM    4  O1  UNL     1      27.138   8.504  49.834  1.00  0.00    -0.267 OA
HETATM    5  C5  UNL     1      28.077   8.058  48.874  1.00  0.00     0.070 C 
HETATM    6  C13 UNL     1      28.401   6.888  48.323  1.00  0.00     0.034 C 
HETATM    7  C14 UNL     1      28.116   5.458  48.275  1.00  0.00     0.000 C 
HETATM    8  C15 UNL     1      27.206   4.726  48.967  1.00  0.00    -0.008 C 
HETATM    9  C16 UNL     1      26.145   4.204  49.851  1.00  0.00     0.143 C 
HETATM   10  N3  UNL     1      25.503   5.032  50.743  1.00  0.00    -0.389 N 
HETATM   11  C17 UNL     1      24.622   6.062  50.572  1.00  0.00     0.341 C 
HETATM   12  H7  UNL     1      26.222   7.606  51.392  1.00  0.00     0.155 HD
HETATM   13  H21 UNL     1      25.404   4.624  51.707  1.00  0.00     0.155 HD
ENDROOT
BRANCH   5  14
HETATM   14  C6  UNL     1      28.720   9.358  48.568  1.00  0.00     0.071 C 
BRANCH  14  15
HETATM   15  C7  UNL     1      29.939   9.627  49.451  1.00  0.00     0.046 C 
BRANCH  15  16
HETATM   16  C8  UNL     1      31.114   9.029  48.781  1.00  0.00    -0.040 A 
HETATM   17  C9  UNL     1      31.854   8.036  49.397  1.00  0.00     0.010 A 
HETATM   18  C10 UNL     1      32.964   7.447  48.806  1.00  0.00     0.020 A 
HETATM   19  C11 UNL     1      33.293   7.922  47.536  1.00  0.00     0.116 A 
HETATM   20  N2  UNL     1      32.588   8.884  46.923  1.00  0.00    -0.273 NA
HETATM   21  C12 UNL     1      31.509   9.443  47.521  1.00  0.00     0.123 A 
ENDBRANCH  15  16
ENDBRANCH  14  15
ENDBRANCH   5  14
BRANCH   1  22
HETATM   22  C2  UNL     1      25.251   6.905  48.325  1.00  0.00    -0.006 C 
HETATM   23  C1  UNL     1      24.564   7.695  47.507  1.00  0.00     0.009 C 
ENDBRANCH   1  22
BRANCH  11  24
HETATM   24  N4  UNL     1      24.378   6.654  51.908  1.00  0.00     0.103 N 
HETATM   25  H23 UNL     1      24.587   5.950  52.655  1.00  0.00     0.315 HD
HETATM   26  H24 UNL     1      23.425   7.031  51.995  1.00  0.00     0.315 HD
ENDBRANCH  11  24
TORSDOF 5
ENDMDL
MODEL 7
REMARK VINA RESULT:      -7.3      7.203      8.944
REMARK  5 active torsions:
REMARK  status: ('A' for Active; 'I' for Inactive)
REMARK    1  A    between atoms: C2_2  and  C3_3 
REMARK    2  A    between atoms: C5_7  and  C6_8 
REMARK    3  A    between atoms: C6_8  and  C7_9 
REMARK    4  A    between atoms: C7_9  and  C8_10 
REMARK    5  A    between atoms: C17_21  and  N4_22 
ROOT
HETATM    1  C3  UNL     1      30.208   8.838  48.355  1.00  0.00     0.097 C 
HETATM    2  C4  UNL     1      31.477   9.425  47.825  1.00  0.00     0.043 C 
HETATM    3  N1  UNL     1      30.486   7.689  49.188  1.00  0.00    -0.183 NA
HETATM    4  O1  UNL     1      31.031   6.621  48.625  1.00  0.00    -0.267 OA
HETATM    5  C5  UNL     1      30.116   5.649  48.153  1.00  0.00     0.070 C 
HETATM    6  C13 UNL     1      28.789   5.528  48.105  1.00  0.00     0.034 C 
HETATM    7  C14 UNL     1      27.509   6.151  48.424  1.00  0.00     0.000 C 
HETATM    8  C15 UNL     1      27.242   7.339  49.024  1.00  0.00    -0.008 C 
HETATM    9  C16 UNL     1      27.262   8.656  49.690  1.00  0.00     0.143 C 
HETATM   10  N3  UNL     1      28.453   9.235  50.065  1.00  0.00    -0.389 N 
HETATM   11  C17 UNL     1      29.483   9.771  49.344  1.00  0.00     0.341 C 
HETATM   12  H7  UNL     1      30.928   8.035  50.062  1.00  0.00     0.155 HD
HETATM   13  H21 UNL     1      28.447   9.631  51.040  1.00  0.00     0.155 HD
ENDROOT
BRANCH   5  14
HETATM   14  C6  UNL     1      31.088   4.649  47.655  1.00  0.00     0.071 C 
BRANCH  14  15
HETATM   15  C7  UNL     1      32.536   5.056  47.928  1.00  0.00     0.046 C 
BRANCH  15  16
HETATM   16  C8  UNL     1      33.297   4.862  46.675  1.00  0.00    -0.040 A 
HETATM   17  C9  UNL     1      34.332   3.948  46.606  1.00  0.00     0.010 A 
HETATM   18  C10 UNL     1      35.073   3.733  45.451  1.00  0.00     0.020 A 
HETATM   19  C11 UNL     1      34.706   4.505  44.348  1.00  0.00     0.116 A 
HETATM   20  N2  UNL     1      33.706   5.397  44.395  1.00  0.00    -0.273 NA
HETATM   21  C12 UNL     1      32.998   5.588  45.534  1.00  0.00     0.123 A 
ENDBRANCH  15  16
ENDBRANCH  14  15
ENDBRANCH   5  14
BRANCH   1  22
HETATM   22  C2  UNL     1      29.334   8.501  47.219  1.00  0.00    -0.006 C 
HETATM   23  C1  UNL     1      29.913   8.686  46.037  1.00  0.00     0.009 C 
ENDBRANCH   1  22
BRANCH  11  24
HETATM   24  N4  UNL     1      30.552  10.126  50.307  1.00  0.00     0.103 N 
HETATM   25  H23 UNL     1      31.257  10.748  49.846  1.00  0.00     0.315 HD
HETATM   26  H24 UNL     1      30.989   9.293  50.722  1.00  0.00     0.315 HD
ENDBRANCH  11  24
TORSDOF 5
ENDMDL
MODEL 8
REMARK VINA RESULT:      -7.1      2.510      3.747
REMARK  5 active torsions:
REMARK  status: ('A' for Active; 'I' for Inactive)
REMARK    1  A    between atoms: C2_2  and  C3_3 
REMARK    2  A    between atoms: C5_7  and  C6_8 
REMARK    3  A    between atoms: C6_8  and  C7_9 
REMARK    4  A    between atoms: C7_9  and  C8_10 
REMARK    5  A    between atoms: C17_21  and  N4_22 
ROOT
HETATM    1  C3  UNL     1      21.005   2.323  50.863  1.00  0.00     0.097 C 
HETATM    2  C4  UNL     1      19.884   2.101  51.828  1.00  0.00     0.043 C 
HETATM    3  N1  UNL     1      21.876   1.170  50.818  1.00  0.00    -0.183 NA
HETATM    4  O1  UNL     1      22.555   0.852  51.909  1.00  0.00    -0.267 OA
HETATM    5  C5  UNL     1      23.848   1.418  52.007  1.00  0.00     0.070 C 
HETATM    6  C13 UNL     1      24.591   2.241  51.266  1.00  0.00     0.034 C 
HETATM    7  C14 UNL     1      24.655   3.036  50.045  1.00  0.00     0.000 C 
HETATM    8  C15 UNL     1      23.738   3.196  49.058  1.00  0.00    -0.008 C 
HETATM    9  C16 UNL     1      22.569   3.174  48.157  1.00  0.00     0.143 C 
HETATM   10  N3  UNL     1      21.488   2.367  48.428  1.00  0.00    -0.389 N 
HETATM   11  C17 UNL     1      20.527   2.411  49.400  1.00  0.00     0.341 C 
HETATM   12  H7  UNL     1      21.356   0.403  50.349  1.00  0.00     0.155 HD
HETATM   13  H21 UNL     1      21.138   1.828  47.596  1.00  0.00     0.155 HD
ENDROOT
BRANCH   5  14
HETATM   14  C6  UNL     1      24.263   0.810  53.293  1.00  0.00     0.071 C 
BRANCH  14  15
HETATM   15  C7  UNL     1      24.957  -0.539  53.103  1.00  0.00     0.046 C 
BRANCH  15  16
HETATM   16  C8  UNL     1      26.357  -0.386  53.554  1.00  0.00    -0.040 A 
HETATM   17  C9  UNL     1      27.383  -1.076  52.935  1.00  0.00     0.010 A 
HETATM   18  C10 UNL     1      28.711  -0.963  53.325  1.00  0.00     0.020 A 
HETATM   19  C11 UNL     1      28.952  -0.100  54.395  1.00  0.00     0.116 A 
HETATM   20  N2  UNL     1      27.971   0.577  55.009  1.00  0.00    -0.273 NA
HETATM   21  C12 UNL     1      26.684   0.449  54.609  1.00  0.00     0.123 A 
ENDBRANCH  15  16
ENDBRANCH  14  15
ENDBRANCH   5  14
BRANCH   1  22
HETATM   22  C2  UNL     1      21.725   3.548  51.251  1.00  0.00    -0.006 C 
HETATM   23  C1  UNL     1      21.236   4.121  52.345  1.00  0.00     0.009 C 
ENDBRANCH   1  22
BRANCH  11  24
HETATM   24  N4  UNL     1      19.699   1.192  49.250  1.00  0.00     0.103 N 
HETATM   25  H23 UNL     1      19.034   1.307  48.450  1.00  0.00     0.315 HD
HETATM   26  H24 UNL     1      19.210   0.947  50.121  1.00  0.00     0.315 HD
ENDBRANCH  11  24
TORSDOF 5
ENDMDL
MODEL 9
REMARK VINA RESULT:      -7.1      7.442      9.378
REMARK  5 active torsions:
REMARK  status: ('A' for Active; 'I' for Inactive)
REMARK    1  A    between atoms: C2_2  and  C3_3 
REMARK    2  A    between atoms: C5_7  and  C6_8 
REMARK    3  A    between atoms: C6_8  and  C7_9 
REMARK    4  A    between atoms: C7_9  and  C8_10 
REMARK    5  A    between atoms: C17_21  and  N4_22 
ROOT
HETATM    1  C3  UNL     1      29.849   8.824  48.627  1.00  0.00     0.097 C 
HETATM    2  C4  UNL     1      30.549  10.146  48.598  1.00  0.00     0.043 C 
HETATM    3  N1  UNL     1      30.423   7.965  49.637  1.00  0.00    -0.183 NA
HETATM    4  O1  UNL     1      31.678   7.571  49.489  1.00  0.00    -0.267 OA
HETATM    5  C5  UNL     1      31.854   6.342  48.809  1.00  0.00     0.070 C 
HETATM    6  C13 UNL     1      31.053   5.445  48.234  1.00  0.00     0.034 C 
HETATM    7  C14 UNL     1      29.675   5.087  47.914  1.00  0.00     0.000 C 
HETATM    8  C15 UNL     1      28.517   5.738  48.196  1.00  0.00    -0.008 C 
HETATM    9  C16 UNL     1      27.446   6.652  48.639  1.00  0.00     0.143 C 
HETATM   10  N3  UNL     1      27.740   7.763  49.395  1.00  0.00    -0.389 N 
HETATM   11  C17 UNL     1      28.387   8.932  49.102  1.00  0.00     0.341 C 
HETATM   12  H7  UNL     1      30.159   8.352  50.564  1.00  0.00     0.155 HD
HETATM   13  H21 UNL     1      27.104   7.898  50.222  1.00  0.00     0.155 HD
ENDROOT
BRANCH   5  14
HETATM   14  C6  UNL     1      33.330   6.251  48.886  1.00  0.00     0.071 C 
BRANCH  14  15
HETATM   15  C7  UNL     1      34.022   7.043  47.776  1.00  0.00     0.046 C 
BRANCH  15  16
HETATM   16  C8  UNL     1      34.149   6.150  46.605  1.00  0.00    -0.040 A 
HETATM   17  C9  UNL     1      34.642   4.865  46.740  1.00  0.00     0.010 A 
HETATM   18  C10 UNL     1      34.778   3.992  45.669  1.00  0.00     0.020 A 
HETATM   19  C11 UNL     1      34.382   4.496  44.429  1.00  0.00     0.116 A 
HETATM   20  N2  UNL     1      33.902   5.738  44.277  1.00  0.00    -0.273 NA
HETATM   21  C12 UNL     1      33.779   6.570  45.338  1.00  0.00     0.123 A 
ENDBRANCH  15  16
ENDBRANCH  14  15
ENDBRANCH   5  14
BRANCH   1  22
HETATM   22  C2  UNL     1      29.918   8.225  47.283  1.00  0.00    -0.006 C 
HETATM   23  C1  UNL     1      29.404   9.000  46.334  1.00  0.00     0.009 C 
ENDBRANCH   1  22
BRANCH  11  24
HETATM   24  N4  UNL     1      28.506   9.694  50.366  1.00  0.00     0.103 N 
HETATM   25  H23 UNL     1      27.821   9.330  51.070  1.00  0.00     0.315 HD
HETATM   26  H24 UNL     1      28.400  10.706  50.219  1.00  0.00     0.315 HD
ENDBRANCH  11  24
TORSDOF 5
ENDMDL
