MODEL 1
REMARK VINA RESULT:      -9.5      0.000      0.000
REMARK  5 active torsions:
REMARK  status: ('A' for Active; 'I' for Inactive)
REMARK       I    between atoms: C1_2  and  N1_3 
REMARK       I    between atoms: C1_2  and  N3_12 
REMARK    1  A    between atoms: N1_3  and  C2_4 
REMARK    2  A    between atoms: C2_4  and  C3_5 
REMARK    3  A    between atoms: C3_5  and  N2_6 
REMARK    4  A    between atoms: N3_12  and  C8_13 
REMARK    5  A    between atoms: C13_20  and  N6_21 
ROOT
HETATM    1  C8  UNL     1      26.654   1.922  51.901  1.00  0.00     0.021 C 
HETATM    2  C9  UNL     1      27.022   0.790  52.402  1.00  0.00     0.027 C 
HETATM    3  C10 UNL     1      26.757  -0.598  52.329  1.00  0.00     0.021 C 
HETATM    4  C11 UNL     1      27.210  -1.538  52.995  1.00  0.00     0.118 C 
HETATM    5  N4  UNL     1      28.052  -0.715  53.862  1.00  0.00    -0.254 NA
HETATM    6  C12 UNL     1      27.212   0.105  54.573  1.00  0.00     0.234 C 
HETATM    7  N5  UNL     1      25.818  -0.075  54.263  1.00  0.00    -0.228 NA
HETATM    8  C13 UNL     1      25.226   0.462  53.217  1.00  0.00     0.113 C 
HETATM    9  C19 UNL     1      25.264   1.345  51.929  1.00  0.00     0.135 C 
ENDROOT
BRANCH   1  10
HETATM   10  N3  UNL     1      26.433   3.220  51.508  1.00  0.00    -0.312 N 
HETATM   11  C1  UNL     1      26.366   3.713  50.177  1.00  0.00     0.320 C 
HETATM   12  O1  UNL     1      26.497   2.983  49.177  1.00  0.00    -0.247 OA
HETATM   13  N1  UNL     1      26.136   5.112  50.105  1.00  0.00    -0.341 N 
HETATM   14  H1  UNL     1      26.039   5.701  50.991  1.00  0.00     0.164 HD
HETATM   15  H14 UNL     1      26.325   3.819  52.381  1.00  0.00     0.170 HD
BRANCH  13  16
HETATM   16  C2  UNL     1      26.019   5.838  48.860  1.00  0.00     0.154 C 
BRANCH  16  17
HETATM   17  C3  UNL     1      27.347   6.474  48.552  1.00  0.00     0.292 C 
BRANCH  17  18
HETATM   18  N2  UNL     1      27.266   7.881  48.327  1.00  0.00     0.094 N 
HETATM   19  C4  UNL     1      25.995   8.487  48.517  1.00  0.00     0.298 C 
HETATM   20  C5  UNL     1      26.181   9.981  48.505  1.00  0.00     0.198 C 
HETATM   21  O2  UNL     1      26.922  10.479  49.554  1.00  0.00    -0.388 OA
HETATM   22  C6  UNL     1      27.617   9.460  50.181  1.00  0.00     0.198 C 
HETATM   23  C7  UNL     1      28.252   8.559  49.134  1.00  0.00     0.298 C 
ENDBRANCH  17  18
ENDBRANCH  16  17
ENDBRANCH  13  16
ENDBRANCH   1  10
BRANCH   8  24
HETATM   24  N6  UNL     1      23.890  -0.037  53.404  1.00  0.00    -0.340 N 
HETATM   25  C14 UNL     1      22.771   0.249  52.588  1.00  0.00     0.119 A 
HETATM   26  C15 UNL     1      21.558  -0.231  52.802  1.00  0.00     0.087 A 
HETATM   27 CL1  UNL     1      20.235   0.174  51.745  1.00  0.00    -0.080 Cl
HETATM   28  C16 UNL     1      21.321  -1.109  53.931  1.00  0.00     0.137 A 
HETATM   29  F1  UNL     1      20.097  -1.614  54.172  1.00  0.00    -0.205 F 
HETATM   30  C17 UNL     1      22.333  -1.396  54.707  1.00  0.00     0.037 A 
HETATM   31  C18 UNL     1      23.728  -0.911  54.555  1.00  0.00     0.160 A 
ENDBRANCH   8  24
TORSDOF 5
ENDMDL
MODEL 2
REMARK VINA RESULT:      -9.2      2.005      2.779
REMARK  5 active torsions:
REMARK  status: ('A' for Active; 'I' for Inactive)
REMARK       I    between atoms: C1_2  and  N1_3 
REMARK       I    between atoms: C1_2  and  N3_12 
REMARK    1  A    between atoms: N1_3  and  C2_4 
REMARK    2  A    between atoms: C2_4  and  C3_5 
REMARK    3  A    between atoms: C3_5  and  N2_6 
REMARK    4  A    between atoms: N3_12  and  C8_13 
REMARK    5  A    between atoms: C13_20  and  N6_21 
ROOT
HETATM    1  C8  UNL     1      26.659   1.886  51.903  1.00  0.00     0.021 C 
HETATM    2  C9  UNL     1      26.998   0.739  52.390  1.00  0.00     0.027 C 
HETATM    3  C10 UNL     1      26.702  -0.642  52.297  1.00  0.00     0.021 C 
HETATM    4  C11 UNL     1      27.129  -1.600  52.952  1.00  0.00     0.118 C 
HETATM    5  N4  UNL     1      27.985  -0.809  53.834  1.00  0.00    -0.254 NA
HETATM    6  C12 UNL     1      27.161   0.020  54.553  1.00  0.00     0.234 C 
HETATM    7  N5  UNL     1      25.764  -0.123  54.233  1.00  0.00    -0.228 NA
HETATM    8  C13 UNL     1      25.191   0.442  53.192  1.00  0.00     0.113 C 
HETATM    9  C19 UNL     1      25.256   1.341  51.916  1.00  0.00     0.135 C 
ENDROOT
BRANCH   1  10
HETATM   10  N3  UNL     1      26.470   3.194  51.527  1.00  0.00    -0.312 N 
HETATM   11  C1  UNL     1      26.426   3.707  50.202  1.00  0.00     0.320 C 
HETATM   12  O1  UNL     1      26.550   2.988  49.194  1.00  0.00    -0.247 OA
HETATM   13  N1  UNL     1      26.228   5.112  50.149  1.00  0.00    -0.341 N 
HETATM   14  H1  UNL     1      26.135   5.690  51.042  1.00  0.00     0.164 HD
HETATM   15  H14 UNL     1      26.367   3.782  52.407  1.00  0.00     0.170 HD
BRANCH  13  16
HETATM   16  C2  UNL     1      26.137   5.858  48.913  1.00  0.00     0.154 C 
BRANCH  16  17
HETATM   17  C3  UNL     1      24.879   6.683  48.946  1.00  0.00     0.292 C 
BRANCH  17  18
HETATM   18  N2  UNL     1      23.820   6.077  49.685  1.00  0.00     0.094 N 
HETATM   19  C4  UNL     1      23.089   6.921  50.565  1.00  0.00     0.298 C 
HETATM   20  C5  UNL     1      21.867   6.173  51.026  1.00  0.00     0.198 C 
HETATM   21  O2  UNL     1      20.953   5.895  50.034  1.00  0.00    -0.388 OA
HETATM   22  C6  UNL     1      21.529   6.056  48.787  1.00  0.00     0.198 C 
HETATM   23  C7  UNL     1      22.910   5.419  48.778  1.00  0.00     0.298 C 
ENDBRANCH  17  18
ENDBRANCH  16  17
ENDBRANCH  13  16
ENDBRANCH   1  10
BRANCH   8  24
HETATM   24  N6  UNL     1      23.842  -0.029  53.365  1.00  0.00    -0.340 N 
HETATM   25  C14 UNL     1      22.740   0.272  52.532  1.00  0.00     0.119 A 
HETATM   26  C15 UNL     1      21.516  -0.182  52.733  1.00  0.00     0.087 A 
HETATM   27 CL1  UNL     1      20.215   0.241  51.655  1.00  0.00    -0.080 Cl
HETATM   28  C16 UNL     1      21.246  -1.044  53.866  1.00  0.00     0.137 A 
HETATM   29  F1  UNL     1      20.009  -1.522  54.096  1.00  0.00    -0.205 F 
HETATM   30  C17 UNL     1      22.242  -1.345  54.658  1.00  0.00     0.037 A 
HETATM   31  C18 UNL     1      23.648  -0.889  54.521  1.00  0.00     0.160 A 
ENDBRANCH   8  24
TORSDOF 5
ENDMDL
MODEL 3
REMARK VINA RESULT:      -8.3      3.308      4.783
REMARK  5 active torsions:
REMARK  status: ('A' for Active; 'I' for Inactive)
REMARK       I    between atoms: C1_2  and  N1_3 
REMARK       I    between atoms: C1_2  and  N3_12 
REMARK    1  A    between atoms: N1_3  and  C2_4 
REMARK    2  A    between atoms: C2_4  and  C3_5 
REMARK    3  A    between atoms: C3_5  and  N2_6 
REMARK    4  A    between atoms: N3_12  and  C8_13 
REMARK    5  A    between atoms: C13_20  and  N6_21 
ROOT
HETATM    1  C8  UNL     1      23.328   4.300  52.378  1.00  0.00     0.021 C 
HETATM    2  C9  UNL     1      22.781   3.132  52.319  1.00  0.00     0.027 C 
HETATM    3  C10 UNL     1      22.685   1.910  53.027  1.00  0.00     0.021 C 
HETATM    4  C11 UNL     1      22.129   0.847  52.722  1.00  0.00     0.118 C 
HETATM    5  N4  UNL     1      21.662   1.293  51.411  1.00  0.00    -0.254 NA
HETATM    6  C12 UNL     1      22.779   1.562  50.659  1.00  0.00     0.234 C 
HETATM    7  N5  UNL     1      24.020   1.343  51.357  1.00  0.00    -0.228 NA
HETATM    8  C13 UNL     1      24.550   2.208  52.195  1.00  0.00     0.113 C 
HETATM    9  C19 UNL     1      24.523   3.578  52.944  1.00  0.00     0.135 C 
ENDROOT
BRANCH   1  10
HETATM   10  N3  UNL     1      23.793   5.585  52.237  1.00  0.00    -0.312 N 
HETATM   11  C1  UNL     1      24.152   6.239  51.027  1.00  0.00     0.320 C 
HETATM   12  O1  UNL     1      24.070   5.691  49.912  1.00  0.00    -0.247 OA
HETATM   13  N1  UNL     1      24.610   7.568  51.219  1.00  0.00    -0.341 N 
HETATM   14  H1  UNL     1      24.672   7.995  52.196  1.00  0.00     0.164 HD
HETATM   15  H14 UNL     1      23.852   6.027  53.203  1.00  0.00     0.170 HD
BRANCH  13  16
HETATM   16  C2  UNL     1      25.021   8.434  50.136  1.00  0.00     0.154 C 
BRANCH  16  17
HETATM   17  C3  UNL     1      26.511   8.628  50.220  1.00  0.00     0.292 C 
BRANCH  17  18
HETATM   18  N2  UNL     1      27.180   8.437  48.975  1.00  0.00     0.094 N 
HETATM   19  C4  UNL     1      28.596   8.572  48.982  1.00  0.00     0.298 C 
HETATM   20  C5  UNL     1      29.122   8.068  47.665  1.00  0.00     0.198 C 
HETATM   21  O2  UNL     1      28.940   6.719  47.449  1.00  0.00    -0.388 OA
HETATM   22  C6  UNL     1      28.008   6.210  48.335  1.00  0.00     0.198 C 
HETATM   23  C7  UNL     1      26.820   7.154  48.420  1.00  0.00     0.298 C 
ENDBRANCH  17  18
ENDBRANCH  16  17
ENDBRANCH  13  16
ENDBRANCH   1  10
BRANCH   8  24
HETATM   24  N6  UNL     1      25.736   1.489  52.576  1.00  0.00    -0.340 N 
HETATM   25  C14 UNL     1      26.872   2.036  53.218  1.00  0.00     0.119 A 
HETATM   26  C15 UNL     1      27.943   1.335  53.546  1.00  0.00     0.087 A 
HETATM   27 CL1  UNL     1      29.300   2.090  54.334  1.00  0.00    -0.080 Cl
HETATM   28  C16 UNL     1      27.995  -0.082  53.248  1.00  0.00     0.137 A 
HETATM   29  F1  UNL     1      29.073  -0.821  53.572  1.00  0.00    -0.205 F 
HETATM   30  C17 UNL     1      26.962  -0.622  52.656  1.00  0.00     0.037 A 
HETATM   31  C18 UNL     1      25.716   0.074  52.247  1.00  0.00     0.160 A 
ENDBRANCH   8  24
TORSDOF 5
ENDMDL
MODEL 4
REMARK VINA RESULT:      -8.3      5.267     10.473
REMARK  5 active torsions:
REMARK  status: ('A' for Active; 'I' for Inactive)
REMARK       I    between atoms: C1_2  and  N1_3 
REMARK       I    between atoms: C1_2  and  N3_12 
REMARK    1  A    between atoms: N1_3  and  C2_4 
REMARK    2  A    between atoms: C2_4  and  C3_5 
REMARK    3  A    between atoms: C3_5  and  N2_6 
REMARK    4  A    between atoms: N3_12  and  C8_13 
REMARK    5  A    between atoms: C13_20  and  N6_21 
ROOT
HETATM    1  C8  UNL     1      27.576   5.806  48.545  1.00  0.00     0.021 C 
HETATM    2  C9  UNL     1      27.895   6.927  47.987  1.00  0.00     0.027 C 
HETATM    3  C10 UNL     1      28.637   7.462  46.908  1.00  0.00     0.021 C 
HETATM    4  C11 UNL     1      28.869   8.637  46.597  1.00  0.00     0.118 C 
HETATM    5  N4  UNL     1      28.154   9.233  47.724  1.00  0.00    -0.254 NA
HETATM    6  C12 UNL     1      28.801   8.831  48.866  1.00  0.00     0.234 C 
HETATM    7  N5  UNL     1      29.933   7.974  48.626  1.00  0.00    -0.228 NA
HETATM    8  C13 UNL     1      29.837   6.682  48.395  1.00  0.00     0.113 C 
HETATM    9  C19 UNL     1      28.985   5.384  48.224  1.00  0.00     0.135 C 
ENDROOT
BRANCH   1  10
HETATM   10  N3  UNL     1      27.107   4.749  49.288  1.00  0.00    -0.312 N 
HETATM   11  C1  UNL     1      25.913   4.705  50.057  1.00  0.00     0.320 C 
HETATM   12  O1  UNL     1      25.122   5.663  50.134  1.00  0.00    -0.247 OA
HETATM   13  N1  UNL     1      25.717   3.466  50.722  1.00  0.00    -0.341 N 
HETATM   14  H1  UNL     1      26.428   2.674  50.634  1.00  0.00     0.164 HD
HETATM   15  H14 UNL     1      27.801   3.948  49.202  1.00  0.00     0.170 HD
BRANCH  13  16
HETATM   16  C2  UNL     1      24.569   3.181  51.554  1.00  0.00     0.154 C 
BRANCH  16  17
HETATM   17  C3  UNL     1      25.039   2.436  52.774  1.00  0.00     0.292 C 
BRANCH  17  18
HETATM   18  N2  UNL     1      25.437   1.093  52.503  1.00  0.00     0.094 N 
HETATM   19  C4  UNL     1      26.813   0.785  52.683  1.00  0.00     0.298 C 
HETATM   20  C5  UNL     1      26.972  -0.710  52.618  1.00  0.00     0.198 C 
HETATM   21  O2  UNL     1      26.363  -1.400  53.644  1.00  0.00    -0.388 OA
HETATM   22  C6  UNL     1      25.455  -0.588  54.299  1.00  0.00     0.198 C 
HETATM   23  C7  UNL     1      24.632   0.181  53.278  1.00  0.00     0.298 C 
ENDBRANCH  17  18
ENDBRANCH  16  17
ENDBRANCH  13  16
ENDBRANCH   1  10
BRANCH   8  24
HETATM   24  N6  UNL     1      31.228   6.354  48.232  1.00  0.00    -0.340 N 
HETATM   25  C14 UNL     1      31.744   5.189  47.619  1.00  0.00     0.119 A 
HETATM   26  C15 UNL     1      33.034   4.929  47.496  1.00  0.00     0.087 A 
HETATM   27 CL1  UNL     1      33.583   3.466  46.726  1.00  0.00    -0.080 Cl
HETATM   28  C16 UNL     1      34.010   5.871  48.006  1.00  0.00     0.137 A 
HETATM   29  F1  UNL     1      35.330   5.633  47.893  1.00  0.00    -0.205 F 
HETATM   30  C17 UNL     1      33.569   6.961  48.578  1.00  0.00     0.037 A 
HETATM   31  C18 UNL     1      32.148   7.345  48.767  1.00  0.00     0.160 A 
ENDBRANCH   8  24
TORSDOF 5
ENDMDL
MODEL 5
REMARK VINA RESULT:      -8.1      1.807      2.368
REMARK  5 active torsions:
REMARK  status: ('A' for Active; 'I' for Inactive)
REMARK       I    between atoms: C1_2  and  N1_3 
REMARK       I    between atoms: C1_2  and  N3_12 
REMARK    1  A    between atoms: N1_3  and  C2_4 
REMARK    2  A    between atoms: C2_4  and  C3_5 
REMARK    3  A    between atoms: C3_5  and  N2_6 
REMARK    4  A    between atoms: N3_12  and  C8_13 
REMARK    5  A    between atoms: C13_20  and  N6_21 
ROOT
HETATM    1  C8  UNL     1      26.448   2.789  51.176  1.00  0.00     0.021 C 
HETATM    2  C9  UNL     1      26.755   1.688  51.777  1.00  0.00     0.027 C 
HETATM    3  C10 UNL     1      26.512   0.294  51.739  1.00  0.00     0.021 C 
HETATM    4  C11 UNL     1      26.880  -0.606  52.505  1.00  0.00     0.118 C 
HETATM    5  N4  UNL     1      27.593   0.270  53.433  1.00  0.00    -0.254 NA
HETATM    6  C12 UNL     1      26.659   1.111  53.985  1.00  0.00     0.234 C 
HETATM    7  N5  UNL     1      25.320   0.897  53.502  1.00  0.00    -0.228 NA
HETATM    8  C13 UNL     1      24.869   1.375  52.362  1.00  0.00     0.113 C 
HETATM    9  C19 UNL     1      25.071   2.195  51.048  1.00  0.00     0.135 C 
ENDROOT
BRANCH   1  10
HETATM   10  N3  UNL     1      26.272   4.063  50.693  1.00  0.00    -0.312 N 
HETATM   11  C1  UNL     1      26.869   4.632  49.535  1.00  0.00     0.320 C 
HETATM   12  O1  UNL     1      27.645   4.000  48.795  1.00  0.00    -0.247 OA
HETATM   13  N1  UNL     1      26.492   5.982  49.312  1.00  0.00    -0.341 N 
HETATM   14  H1  UNL     1      25.830   6.487  49.980  1.00  0.00     0.164 HD
HETATM   15  H14 UNL     1      25.606   4.577  51.344  1.00  0.00     0.170 HD
BRANCH  13  16
HETATM   16  C2  UNL     1      26.963   6.766  48.192  1.00  0.00     0.154 C 
BRANCH  16  17
HETATM   17  C3  UNL     1      26.815   8.224  48.535  1.00  0.00     0.292 C 
BRANCH  17  18
HETATM   18  N2  UNL     1      25.745   8.866  47.845  1.00  0.00     0.094 N 
HETATM   19  C4  UNL     1      25.278   8.235  46.659  1.00  0.00     0.298 C 
HETATM   20  C5  UNL     1      23.994   8.903  46.246  1.00  0.00     0.198 C 
HETATM   21  O2  UNL     1      22.946   8.729  47.123  1.00  0.00    -0.388 OA
HETATM   22  C6  UNL     1      23.409   8.279  48.346  1.00  0.00     0.198 C 
HETATM   23  C7  UNL     1      24.639   9.076  48.748  1.00  0.00     0.298 C 
ENDBRANCH  17  18
ENDBRANCH  16  17
ENDBRANCH  13  16
ENDBRANCH   1  10
BRANCH   8  24
HETATM   24  N6  UNL     1      23.523   0.867  52.394  1.00  0.00    -0.340 N 
HETATM   25  C14 UNL     1      22.999  -0.046  53.339  1.00  0.00     0.119 A 
HETATM   26  C15 UNL     1      21.754  -0.488  53.326  1.00  0.00     0.087 A 
HETATM   27 CL1  UNL     1      21.191  -1.614  54.529  1.00  0.00    -0.080 Cl
HETATM   28  C16 UNL     1      20.839  -0.033  52.298  1.00  0.00     0.137 A 
HETATM   29  F1  UNL     1      19.565  -0.465  52.261  1.00  0.00    -0.205 F 
HETATM   30  C17 UNL     1      21.289   0.813  51.408  1.00  0.00     0.037 A 
HETATM   31  C18 UNL     1      22.664   1.368  51.335  1.00  0.00     0.160 A 
ENDBRANCH   8  24
TORSDOF 5
ENDMDL
MODEL 6
REMARK VINA RESULT:      -8.0      4.325      8.719
REMARK  5 active torsions:
REMARK  status: ('A' for Active; 'I' for Inactive)
REMARK       I    between atoms: C1_2  and  N1_3 
REMARK       I    between atoms: C1_2  and  N3_12 
REMARK    1  A    between atoms: N1_3  and  C2_4 
REMARK    2  A    between atoms: C2_4  and  C3_5 
REMARK    3  A    between atoms: C3_5  and  N2_6 
REMARK    4  A    between atoms: N3_12  and  C8_13 
REMARK    5  A    between atoms: C13_20  and  N6_21 
ROOT
HETATM    1  C8  UNL     1      22.921   3.153  49.920  1.00  0.00     0.021 C 
HETATM    2  C9  UNL     1      22.519   4.293  49.464  1.00  0.00     0.027 C 
HETATM    3  C10 UNL     1      22.640   5.149  48.343  1.00  0.00     0.021 C 
HETATM    4  C11 UNL     1      22.195   6.287  48.151  1.00  0.00     0.118 C 
HETATM    5  N4  UNL     1      21.560   6.423  49.461  1.00  0.00    -0.254 NA
HETATM    6  C12 UNL     1      22.563   6.377  50.398  1.00  0.00     0.234 C 
HETATM    7  N5  UNL     1      23.878   6.209  49.838  1.00  0.00    -0.228 NA
HETATM    8  C13 UNL     1      24.371   5.048  49.462  1.00  0.00     0.113 C 
HETATM    9  C19 UNL     1      24.242   3.502  49.286  1.00  0.00     0.135 C 
ENDROOT
BRANCH   1  10
HETATM   10  N3  UNL     1      23.208   1.990  50.592  1.00  0.00    -0.312 N 
HETATM   11  C1  UNL     1      23.795   1.868  51.881  1.00  0.00     0.320 C 
HETATM   12  O1  UNL     1      24.118   2.851  52.573  1.00  0.00    -0.247 OA
HETATM   13  N1  UNL     1      23.974   0.521  52.293  1.00  0.00    -0.341 N 
HETATM   14  H1  UNL     1      23.690  -0.291  51.661  1.00  0.00     0.164 HD
HETATM   15  H14 UNL     1      22.922   1.170  49.979  1.00  0.00     0.170 HD
BRANCH  13  16
HETATM   16  C2  UNL     1      24.542   0.147  53.569  1.00  0.00     0.154 C 
BRANCH  16  17
HETATM   17  C3  UNL     1      25.785  -0.663  53.319  1.00  0.00     0.292 C 
BRANCH  17  18
HETATM   18  N2  UNL     1      26.943  -0.147  53.973  1.00  0.00     0.094 N 
HETATM   19  C4  UNL     1      28.199  -0.428  53.369  1.00  0.00     0.298 C 
HETATM   20  C5  UNL     1      29.244   0.421  54.042  1.00  0.00     0.198 C 
HETATM   21  O2  UNL     1      29.101   1.777  53.844  1.00  0.00    -0.388 OA
HETATM   22  C6  UNL     1      27.835   2.064  53.368  1.00  0.00     0.198 C 
HETATM   23  C7  UNL     1      26.803   1.277  54.159  1.00  0.00     0.298 C 
ENDBRANCH  17  18
ENDBRANCH  16  17
ENDBRANCH  13  16
ENDBRANCH   1  10
BRANCH   8  24
HETATM   24  N6  UNL     1      25.667   5.466  48.998  1.00  0.00    -0.340 N 
HETATM   25  C14 UNL     1      25.992   6.734  48.463  1.00  0.00     0.119 A 
HETATM   26  C15 UNL     1      27.200   7.071  48.045  1.00  0.00     0.087 A 
HETATM   27 CL1  UNL     1      27.513   8.657  47.398  1.00  0.00    -0.080 Cl
HETATM   28  C16 UNL     1      28.283   6.111  48.125  1.00  0.00     0.137 A 
HETATM   29  F1  UNL     1      29.523   6.427  47.708  1.00  0.00    -0.205 F 
HETATM   30  C17 UNL     1      28.019   4.928  48.616  1.00  0.00     0.037 A 
HETATM   31  C18 UNL     1      26.702   4.452  49.110  1.00  0.00     0.160 A 
ENDBRANCH   8  24
TORSDOF 5
ENDMDL
MODEL 7
REMARK VINA RESULT:      -7.9      3.809      5.519
REMARK  5 active torsions:
REMARK  status: ('A' for Active; 'I' for Inactive)
REMARK       I    between atoms: C1_2  and  N1_3 
REMARK       I    between atoms: C1_2  and  N3_12 
REMARK    1  A    between atoms: N1_3  and  C2_4 
REMARK    2  A    between atoms: C2_4  and  C3_5 
REMARK    3  A    between atoms: C3_5  and  N2_6 
REMARK    4  A    between atoms: N3_12  and  C8_13 
REMARK    5  A    between atoms: C13_20  and  N6_21 
ROOT
HETATM    1  C8  UNL     1      25.292   4.565  49.568  1.00  0.00     0.021 C 
HETATM    2  C9  UNL     1      24.007   4.482  49.464  1.00  0.00     0.027 C 
HETATM    3  C10 UNL     1      22.826   4.461  50.243  1.00  0.00     0.021 C 
HETATM    4  C11 UNL     1      21.647   4.291  49.909  1.00  0.00     0.118 C 
HETATM    5  N4  UNL     1      21.921   4.096  48.487  1.00  0.00    -0.254 NA
HETATM    6  C12 UNL     1      22.689   2.964  48.379  1.00  0.00     0.234 C 
HETATM    7  N5  UNL     1      22.989   2.339  49.640  1.00  0.00    -0.228 NA
HETATM    8  C13 UNL     1      23.948   2.741  50.446  1.00  0.00     0.113 C 
HETATM    9  C19 UNL     1      25.127   3.705  50.793  1.00  0.00     0.135 C 
ENDROOT
BRANCH   1  10
HETATM   10  N3  UNL     1      26.658   4.646  49.439  1.00  0.00    -0.312 N 
HETATM   11  C1  UNL     1      27.393   5.614  48.702  1.00  0.00     0.320 C 
HETATM   12  O1  UNL     1      26.850   6.541  48.073  1.00  0.00    -0.247 OA
HETATM   13  N1  UNL     1      28.797   5.415  48.756  1.00  0.00    -0.341 N 
HETATM   14  H1  UNL     1      29.218   4.600  49.302  1.00  0.00     0.164 HD
HETATM   15  H14 UNL     1      27.093   3.844  49.985  1.00  0.00     0.170 HD
BRANCH  13  16
HETATM   16  C2  UNL     1      29.750   6.278  48.094  1.00  0.00     0.154 C 
BRANCH  16  17
HETATM   17  C3  UNL     1      31.045   6.235  48.860  1.00  0.00     0.292 C 
BRANCH  17  18
HETATM   18  N2  UNL     1      32.177   5.928  48.048  1.00  0.00     0.094 N 
HETATM   19  C4  UNL     1      33.433   5.843  48.708  1.00  0.00     0.298 C 
HETATM   20  C5  UNL     1      34.428   5.248  47.748  1.00  0.00     0.198 C 
HETATM   21  O2  UNL     1      34.176   3.941  47.392  1.00  0.00    -0.388 OA
HETATM   22  C6  UNL     1      32.879   3.593  47.722  1.00  0.00     0.198 C 
HETATM   23  C7  UNL     1      31.933   4.711  47.313  1.00  0.00     0.298 C 
ENDBRANCH  17  18
ENDBRANCH  16  17
ENDBRANCH  13  16
ENDBRANCH   1  10
BRANCH   8  24
HETATM   24  N6  UNL     1      23.794   1.788  51.512  1.00  0.00    -0.340 N 
HETATM   25  C14 UNL     1      22.577   1.417  52.130  1.00  0.00     0.119 A 
HETATM   26  C15 UNL     1      22.485   0.537  53.111  1.00  0.00     0.087 A 
HETATM   27 CL1  UNL     1      20.943   0.140  53.817  1.00  0.00    -0.080 Cl
HETATM   28  C16 UNL     1      23.682  -0.111  53.611  1.00  0.00     0.137 A 
HETATM   29  F1  UNL     1      23.618  -1.012  54.609  1.00  0.00    -0.205 F 
HETATM   30  C17 UNL     1      24.825   0.206  53.062  1.00  0.00     0.037 A 
HETATM   31  C18 UNL     1      25.036   1.178  51.961  1.00  0.00     0.160 A 
ENDBRANCH   8  24
TORSDOF 5
ENDMDL
MODEL 8
REMARK VINA RESULT:      -7.8      3.180      4.877
REMARK  5 active torsions:
REMARK  status: ('A' for Active; 'I' for Inactive)
REMARK       I    between atoms: C1_2  and  N1_3 
REMARK       I    between atoms: C1_2  and  N3_12 
REMARK    1  A    between atoms: N1_3  and  C2_4 
REMARK    2  A    between atoms: C2_4  and  C3_5 
REMARK    3  A    between atoms: C3_5  and  N2_6 
REMARK    4  A    between atoms: N3_12  and  C8_13 
REMARK    5  A    between atoms: C13_20  and  N6_21 
ROOT
HETATM    1  C8  UNL     1      23.697   5.879  51.468  1.00  0.00     0.021 C 
HETATM    2  C9  UNL     1      22.563   5.282  51.305  1.00  0.00     0.027 C 
HETATM    3  C10 UNL     1      21.606   4.503  51.997  1.00  0.00     0.021 C 
HETATM    4  C11 UNL     1      20.575   3.952  51.591  1.00  0.00     0.118 C 
HETATM    5  N4  UNL     1      20.727   4.357  50.195  1.00  0.00    -0.254 NA
HETATM    6  C12 UNL     1      21.880   3.772  49.733  1.00  0.00     0.234 C 
HETATM    7  N5  UNL     1      22.567   2.977  50.716  1.00  0.00    -0.228 NA
HETATM    8  C13 UNL     1      23.361   3.479  51.638  1.00  0.00     0.113 C 
HETATM    9  C19 UNL     1      24.060   4.695  52.325  1.00  0.00     0.135 C 
ENDROOT
BRANCH   1  10
HETATM   10  N3  UNL     1      24.875   6.584  51.413  1.00  0.00    -0.312 N 
HETATM   11  C1  UNL     1      25.239   7.573  50.460  1.00  0.00     0.320 C 
HETATM   12  O1  UNL     1      24.486   7.930  49.534  1.00  0.00    -0.247 OA
HETATM   13  N1  UNL     1      26.537   8.108  50.670  1.00  0.00    -0.341 N 
HETATM   14  H1  UNL     1      27.151   7.765  51.474  1.00  0.00     0.164 HD
HETATM   15  H14 UNL     1      25.495   6.259  52.214  1.00  0.00     0.170 HD
BRANCH  13  16
HETATM   16  C2  UNL     1      27.121   9.134  49.836  1.00  0.00     0.154 C 
BRANCH  16  17
HETATM   17  C3  UNL     1      27.863   8.467  48.709  1.00  0.00     0.292 C 
BRANCH  17  18
HETATM   18  N2  UNL     1      29.259   8.313  48.960  1.00  0.00     0.094 N 
HETATM   19  C4  UNL     1      30.035   7.727  47.923  1.00  0.00     0.298 C 
HETATM   20  C5  UNL     1      31.489   7.907  48.264  1.00  0.00     0.198 C 
HETATM   21  O2  UNL     1      31.922   9.216  48.274  1.00  0.00    -0.388 OA
HETATM   22  C6  UNL     1      30.843  10.080  48.311  1.00  0.00     0.198 C 
HETATM   23  C7  UNL     1      29.830   9.585  49.331  1.00  0.00     0.298 C 
ENDBRANCH  17  18
ENDBRANCH  16  17
ENDBRANCH  13  16
ENDBRANCH   1  10
BRANCH   8  24
HETATM   24  N6  UNL     1      23.753   2.271  52.314  1.00  0.00    -0.340 N 
HETATM   25  C14 UNL     1      22.925   1.155  52.576  1.00  0.00     0.119 A 
HETATM   26  C15 UNL     1      23.330   0.066  53.205  1.00  0.00     0.087 A 
HETATM   27 CL1  UNL     1      22.240  -1.263  53.486  1.00  0.00    -0.080 Cl
HETATM   28  C16 UNL     1      24.699  -0.029  53.669  1.00  0.00     0.137 A 
HETATM   29  F1  UNL     1      25.140  -1.127  54.312  1.00  0.00    -0.205 F 
HETATM   30  C17 UNL     1      25.495   0.984  53.444  1.00  0.00     0.037 A 
HETATM   31  C18 UNL     1      25.140   2.247  52.750  1.00  0.00     0.160 A 
ENDBRANCH   8  24
TORSDOF 5
ENDMDL
MODEL 9
REMARK VINA RESULT:      -7.8      4.306      7.085
REMARK  5 active torsions:
REMARK  status: ('A' for Active; 'I' for Inactive)
REMARK       I    between atoms: C1_2  and  N1_3 
REMARK       I    between atoms: C1_2  and  N3_12 
REMARK    1  A    between atoms: N1_3  and  C2_4 
REMARK    2  A    between atoms: C2_4  and  C3_5 
REMARK    3  A    between atoms: C3_5  and  N2_6 
REMARK    4  A    between atoms: N3_12  and  C8_13 
REMARK    5  A    between atoms: C13_20  and  N6_21 
ROOT
HETATM    1  C8  UNL     1      25.566   8.584  50.119  1.00  0.00     0.021 C 
HETATM    2  C9  UNL     1      24.349   8.567  49.683  1.00  0.00     0.027 C 
HETATM    3  C10 UNL     1      23.046   8.145  50.038  1.00  0.00     0.021 C 
HETATM    4  C11 UNL     1      21.990   8.174  49.393  1.00  0.00     0.118 C 
HETATM    5  N4  UNL     1      22.571   8.746  48.180  1.00  0.00    -0.254 NA
HETATM    6  C12 UNL     1      23.478   7.834  47.703  1.00  0.00     0.234 C 
HETATM    7  N5  UNL     1      23.589   6.644  48.506  1.00  0.00    -0.228 NA
HETATM    8  C13 UNL     1      24.307   6.569  49.607  1.00  0.00     0.113 C 
HETATM    9  C19 UNL     1      25.261   7.213  50.663  1.00  0.00     0.135 C 
ENDROOT
BRANCH   1  10
HETATM   10  N3  UNL     1      26.908   8.720  50.379  1.00  0.00    -0.312 N 
HETATM   11  C1  UNL     1      27.906   9.216  49.497  1.00  0.00     0.320 C 
HETATM   12  O1  UNL     1      27.654   9.609  48.342  1.00  0.00    -0.247 OA
HETATM   13  N1  UNL     1      29.207   9.218  50.063  1.00  0.00    -0.341 N 
HETATM   14  H1  UNL     1      29.377   8.863  51.055  1.00  0.00     0.164 HD
HETATM   15  H14 UNL     1      27.092   8.378  51.369  1.00  0.00     0.170 HD
BRANCH  13  16
HETATM   16  C2  UNL     1      30.381   9.688  49.361  1.00  0.00     0.154 C 
BRANCH  16  17
HETATM   17  C3  UNL     1      31.423   8.603  49.396  1.00  0.00     0.292 C 
BRANCH  17  18
HETATM   18  N2  UNL     1      30.890   7.294  49.200  1.00  0.00     0.094 N 
HETATM   19  C4  UNL     1      30.511   6.950  47.874  1.00  0.00     0.298 C 
HETATM   20  C5  UNL     1      30.243   5.469  47.831  1.00  0.00     0.198 C 
HETATM   21  O2  UNL     1      31.348   4.677  48.054  1.00  0.00    -0.388 OA
HETATM   22  C6  UNL     1      32.372   5.421  48.610  1.00  0.00     0.198 C 
HETATM   23  C7  UNL     1      31.815   6.311  49.710  1.00  0.00     0.298 C 
ENDBRANCH  17  18
ENDBRANCH  16  17
ENDBRANCH  13  16
ENDBRANCH   1  10
BRANCH   8  24
HETATM   24  N6  UNL     1      24.057   5.201  49.974  1.00  0.00    -0.340 N 
HETATM   25  C14 UNL     1      24.310   4.617  51.237  1.00  0.00     0.119 A 
HETATM   26  C15 UNL     1      24.066   3.351  51.527  1.00  0.00     0.087 A 
HETATM   27 CL1  UNL     1      24.410   2.713  53.111  1.00  0.00    -0.080 Cl
HETATM   28  C16 UNL     1      23.506   2.476  50.517  1.00  0.00     0.137 A 
HETATM   29  F1  UNL     1      23.246   1.183  50.785  1.00  0.00    -0.205 F 
HETATM   30  C17 UNL     1      23.257   2.983  49.337  1.00  0.00     0.037 A 
HETATM   31  C18 UNL     1      23.494   4.385  48.911  1.00  0.00     0.160 A 
ENDBRANCH   8  24
TORSDOF 5
ENDMDL
