MODEL 1
REMARK VINA RESULT:      -8.3      0.000      0.000
REMARK  8 active torsions:
REMARK  status: ('A' for Active; 'I' for Inactive)
REMARK    1  A    between atoms: N1_2  and  C2_3 
REMARK    2  A    between atoms: C2_3  and  C3_4 
REMARK    3  A    between atoms: C4_5  and  C5_6 
REMARK    4  A    between atoms: C5_6  and  C6_7 
REMARK    5  A    between atoms: C7_8  and  C8_9 
REMARK    6  A    between atoms: C13_15  and  O1_16 
REMARK    7  A    between atoms: O1_16  and  C14_17 
REMARK    8  A    between atoms: C14_17  and  C15_18 
ROOT
HETATM    1  C8  UNL     1      26.030   1.710  51.640  1.00  0.00     0.091 C 
HETATM    2  C9  UNL     1      26.921   1.606  52.582  1.00  0.00     0.042 C 
HETATM    3  N2  UNL     1      28.036   2.480  52.775  1.00  0.00    -0.391 N 
HETATM    4  C10 UNL     1      28.802   2.215  53.981  1.00  0.00     0.119 C 
HETATM    5  C11 UNL     1      29.263   0.802  54.112  1.00  0.00     0.022 C 
HETATM    6  C12 UNL     1      28.270  -0.157  53.486  1.00  0.00     0.040 C 
HETATM    7  C13 UNL     1      26.892   0.514  53.626  1.00  0.00     0.171 C 
HETATM    8  H12 UNL     1      28.202   3.226  52.042  1.00  0.00     0.159 HD
ENDROOT
BRANCH   1   9
HETATM    9  C7  UNL     1      26.179   2.794  50.717  1.00  0.00    -0.076 C 
HETATM   10  C6  UNL     1      26.282   3.709  49.938  1.00  0.00    -0.098 C 
BRANCH  10  11
HETATM   11  C5  UNL     1      26.393   4.833  49.009  1.00  0.00     0.121 C 
BRANCH  11  12
HETATM   12  C4  UNL     1      27.826   4.922  48.591  1.00  0.00    -0.017 C 
HETATM   13  C3  UNL     1      28.708   5.857  48.347  1.00  0.00    -0.001 C 
BRANCH  13  14
HETATM   14  C2  UNL     1      30.045   6.373  47.963  1.00  0.00     0.296 C 
BRANCH  14  15
HETATM   15  N1  UNL     1      30.683   6.967  49.102  1.00  0.00     0.082 N 
HETATM   16  C1  UNL     1      31.875   6.255  49.512  1.00  0.00     0.307 C 
HETATM   17  H4  UNL     1      30.952   7.961  48.929  1.00  0.00     0.315 HD
ENDBRANCH  14  15
ENDBRANCH  13  14
ENDBRANCH  11  12
ENDBRANCH  10  11
ENDBRANCH   1   9
BRANCH   7  18
HETATM   18  O1  UNL     1      25.913  -0.398  53.382  1.00  0.00    -0.375 OA
BRANCH  18  19
HETATM   19  C14 UNL     1      25.162  -0.705  54.484  1.00  0.00     0.207 C 
BRANCH  19  20
HETATM   20  C15 UNL     1      23.711  -0.751  54.248  1.00  0.00    -0.032 A 
HETATM   21  C16 UNL     1      22.677  -1.163  55.055  1.00  0.00     0.009 A 
HETATM   22  C17 UNL     1      21.363  -1.115  54.652  1.00  0.00     0.004 A 
HETATM   23  C18 UNL     1      20.998  -0.651  53.414  1.00  0.00     0.042 A 
HETATM   24  C19 UNL     1      21.999  -0.227  52.570  1.00  0.00     0.117 A 
HETATM   25  F1  UNL     1      21.659   0.234  51.342  1.00  0.00    -0.206 F 
HETATM   26  C20 UNL     1      23.316  -0.282  52.990  1.00  0.00     0.051 A 
ENDBRANCH  19  20
ENDBRANCH  18  19
ENDBRANCH   7  18
TORSDOF 8
ENDMDL
MODEL 2
REMARK VINA RESULT:      -8.3      2.078      3.047
REMARK  8 active torsions:
REMARK  status: ('A' for Active; 'I' for Inactive)
REMARK    1  A    between atoms: N1_2  and  C2_3 
REMARK    2  A    between atoms: C2_3  and  C3_4 
REMARK    3  A    between atoms: C4_5  and  C5_6 
REMARK    4  A    between atoms: C5_6  and  C6_7 
REMARK    5  A    between atoms: C7_8  and  C8_9 
REMARK    6  A    between atoms: C13_15  and  O1_16 
REMARK    7  A    between atoms: O1_16  and  C14_17 
REMARK    8  A    between atoms: C14_17  and  C15_18 
ROOT
HETATM    1  C8  UNL     1      26.247   1.791  51.348  1.00  0.00     0.091 C 
HETATM    2  C9  UNL     1      27.029   1.693  52.384  1.00  0.00     0.042 C 
HETATM    3  N2  UNL     1      28.120   2.565  52.689  1.00  0.00    -0.391 N 
HETATM    4  C10 UNL     1      28.748   2.311  53.975  1.00  0.00     0.119 C 
HETATM    5  C11 UNL     1      29.184   0.899  54.171  1.00  0.00     0.022 C 
HETATM    6  C12 UNL     1      28.262  -0.064  53.449  1.00  0.00     0.040 C 
HETATM    7  C13 UNL     1      26.880   0.614  53.430  1.00  0.00     0.171 C 
HETATM    8  H12 UNL     1      28.369   3.303  51.971  1.00  0.00     0.159 HD
ENDROOT
BRANCH   1   9
HETATM    9  C7  UNL     1      26.502   2.864  50.435  1.00  0.00    -0.076 C 
HETATM   10  C6  UNL     1      26.733   3.756  49.658  1.00  0.00    -0.098 C 
BRANCH  10  11
HETATM   11  C5  UNL     1      27.012   4.822  48.697  1.00  0.00     0.121 C 
BRANCH  11  12
HETATM   12  C4  UNL     1      26.098   5.961  49.019  1.00  0.00    -0.017 C 
HETATM   13  C3  UNL     1      25.486   6.444  50.070  1.00  0.00    -0.001 C 
BRANCH  13  14
HETATM   14  C2  UNL     1      24.608   7.400  50.789  1.00  0.00     0.296 C 
BRANCH  14  15
HETATM   15  N1  UNL     1      24.191   6.831  52.038  1.00  0.00     0.082 N 
HETATM   16  C1  UNL     1      23.602   5.518  51.888  1.00  0.00     0.307 C 
HETATM   17  H4  UNL     1      24.982   6.747  52.715  1.00  0.00     0.315 HD
ENDBRANCH  14  15
ENDBRANCH  13  14
ENDBRANCH  11  12
ENDBRANCH  10  11
ENDBRANCH   1   9
BRANCH   7  18
HETATM   18  O1  UNL     1      25.929  -0.297  53.089  1.00  0.00    -0.375 OA
BRANCH  18  19
HETATM   19  C14 UNL     1      24.997  -0.510  54.069  1.00  0.00     0.207 C 
BRANCH  19  20
HETATM   20  C15 UNL     1      23.612  -0.204  53.677  1.00  0.00    -0.032 A 
HETATM   21  C16 UNL     1      23.097   0.798  52.889  1.00  0.00     0.009 A 
HETATM   22  C17 UNL     1      21.752   0.909  52.624  1.00  0.00     0.004 A 
HETATM   23  C18 UNL     1      20.834   0.025  53.130  1.00  0.00     0.042 A 
HETATM   24  C19 UNL     1      21.303  -0.996  53.927  1.00  0.00     0.117 A 
HETATM   25  F1  UNL     1      20.413  -1.880  54.438  1.00  0.00    -0.206 F 
HETATM   26  C20 UNL     1      22.659  -1.095  54.184  1.00  0.00     0.051 A 
ENDBRANCH  19  20
ENDBRANCH  18  19
ENDBRANCH   7  18
TORSDOF 8
ENDMDL
MODEL 3
REMARK VINA RESULT:      -8.0      3.007      4.734
REMARK  8 active torsions:
REMARK  status: ('A' for Active; 'I' for Inactive)
REMARK    1  A    between atoms: N1_2  and  C2_3 
REMARK    2  A    between atoms: C2_3  and  C3_4 
REMARK    3  A    between atoms: C4_5  and  C5_6 
REMARK    4  A    between atoms: C5_6  and  C6_7 
REMARK    5  A    between atoms: C7_8  and  C8_9 
REMARK    6  A    between atoms: C13_15  and  O1_16 
REMARK    7  A    between atoms: O1_16  and  C14_17 
REMARK    8  A    between atoms: C14_17  and  C15_18 
ROOT
HETATM    1  C8  UNL     1      26.571   3.146  49.982  1.00  0.00     0.091 C 
HETATM    2  C9  UNL     1      25.511   3.343  50.711  1.00  0.00     0.042 C 
HETATM    3  N2  UNL     1      24.825   4.587  50.864  1.00  0.00    -0.391 N 
HETATM    4  C10 UNL     1      23.594   4.502  51.631  1.00  0.00     0.119 C 
HETATM    5  C11 UNL     1      23.754   3.867  52.971  1.00  0.00     0.022 C 
HETATM    6  C12 UNL     1      24.839   2.808  52.948  1.00  0.00     0.040 C 
HETATM    7  C13 UNL     1      24.849   2.249  51.514  1.00  0.00     0.171 C 
HETATM    8  H12 UNL     1      25.261   5.442  50.415  1.00  0.00     0.159 HD
ENDROOT
BRANCH   1   9
HETATM    9  C7  UNL     1      27.094   4.274  49.271  1.00  0.00    -0.076 C 
HETATM   10  C6  UNL     1      27.555   5.220  48.682  1.00  0.00    -0.098 C 
BRANCH  10  11
HETATM   11  C5  UNL     1      28.131   6.352  47.959  1.00  0.00     0.121 C 
BRANCH  11  12
HETATM   12  C4  UNL     1      29.607   6.124  47.883  1.00  0.00    -0.017 C 
HETATM   13  C3  UNL     1      30.607   5.965  48.711  1.00  0.00    -0.001 C 
BRANCH  13  14
HETATM   14  C2  UNL     1      32.030   5.744  49.070  1.00  0.00     0.296 C 
BRANCH  14  15
HETATM   15  N1  UNL     1      32.500   4.530  48.467  1.00  0.00     0.082 N 
HETATM   16  C1  UNL     1      33.835   4.654  47.923  1.00  0.00     0.307 C 
HETATM   17  H4  UNL     1      32.506   3.733  49.142  1.00  0.00     0.315 HD
ENDBRANCH  14  15
ENDBRANCH  13  14
ENDBRANCH  11  12
ENDBRANCH  10  11
ENDBRANCH   1   9
BRANCH   7  18
HETATM   18  O1  UNL     1      25.562   1.090  51.480  1.00  0.00    -0.375 OA
BRANCH  18  19
HETATM   19  C14 UNL     1      25.771   0.538  52.715  1.00  0.00     0.207 C 
BRANCH  19  20
HETATM   20  C15 UNL     1      27.176   0.220  53.017  1.00  0.00    -0.032 A 
HETATM   21  C16 UNL     1      28.235   1.033  53.346  1.00  0.00     0.009 A 
HETATM   22  C17 UNL     1      29.489   0.537  53.611  1.00  0.00     0.004 A 
HETATM   23  C18 UNL     1      29.766  -0.807  53.564  1.00  0.00     0.042 A 
HETATM   24  C19 UNL     1      28.737  -1.660  53.239  1.00  0.00     0.117 A 
HETATM   25  F1  UNL     1      28.990  -2.990  53.187  1.00  0.00    -0.206 F 
HETATM   26  C20 UNL     1      27.480  -1.145  52.975  1.00  0.00     0.051 A 
ENDBRANCH  19  20
ENDBRANCH  18  19
ENDBRANCH   7  18
TORSDOF 8
ENDMDL
MODEL 4
REMARK VINA RESULT:      -7.7      1.713      2.327
REMARK  8 active torsions:
REMARK  status: ('A' for Active; 'I' for Inactive)
REMARK    1  A    between atoms: N1_2  and  C2_3 
REMARK    2  A    between atoms: C2_3  and  C3_4 
REMARK    3  A    between atoms: C4_5  and  C5_6 
REMARK    4  A    between atoms: C5_6  and  C6_7 
REMARK    5  A    between atoms: C7_8  and  C8_9 
REMARK    6  A    between atoms: C13_15  and  O1_16 
REMARK    7  A    between atoms: O1_16  and  C14_17 
REMARK    8  A    between atoms: C14_17  and  C15_18 
ROOT
HETATM    1  C8  UNL     1      25.338   3.279  50.352  1.00  0.00     0.091 C 
HETATM    2  C9  UNL     1      25.898   2.657  51.349  1.00  0.00     0.042 C 
HETATM    3  N2  UNL     1      27.255   2.812  51.771  1.00  0.00    -0.391 N 
HETATM    4  C10 UNL     1      27.588   2.097  52.992  1.00  0.00     0.119 C 
HETATM    5  C11 UNL     1      27.250   0.645  52.959  1.00  0.00     0.022 C 
HETATM    6  C12 UNL     1      26.022   0.388  52.110  1.00  0.00     0.040 C 
HETATM    7  C13 UNL     1      25.164   1.662  52.216  1.00  0.00     0.171 C 
HETATM    8  H12 UNL     1      27.884   3.418  51.173  1.00  0.00     0.159 HD
ENDROOT
BRANCH   1   9
HETATM    9  C7  UNL     1      26.153   4.197  49.615  1.00  0.00    -0.076 C 
HETATM   10  C6  UNL     1      26.842   4.982  49.012  1.00  0.00    -0.098 C 
BRANCH  10  11
HETATM   11  C5  UNL     1      27.697   5.929  48.298  1.00  0.00     0.121 C 
BRANCH  11  12
HETATM   12  C4  UNL     1      29.042   5.293  48.156  1.00  0.00    -0.017 C 
HETATM   13  C3  UNL     1      30.296   5.668  48.145  1.00  0.00    -0.001 C 
BRANCH  13  14
HETATM   14  C2  UNL     1      31.760   5.451  48.049  1.00  0.00     0.296 C 
BRANCH  14  15
HETATM   15  N1  UNL     1      32.025   4.200  47.401  1.00  0.00     0.082 N 
HETATM   16  C1  UNL     1      33.401   3.774  47.543  1.00  0.00     0.307 C 
HETATM   17  H4  UNL     1      31.417   3.432  47.765  1.00  0.00     0.315 HD
ENDBRANCH  14  15
ENDBRANCH  13  14
ENDBRANCH  11  12
ENDBRANCH  10  11
ENDBRANCH   1   9
BRANCH   7  18
HETATM   18  O1  UNL     1      23.911   1.409  51.751  1.00  0.00    -0.375 OA
BRANCH  18  19
HETATM   19  C14 UNL     1      22.923   1.688  52.656  1.00  0.00     0.207 C 
BRANCH  19  20
HETATM   20  C15 UNL     1      22.302   0.504  53.273  1.00  0.00    -0.032 A 
HETATM   21  C16 UNL     1      22.842  -0.503  54.037  1.00  0.00     0.009 A 
HETATM   22  C17 UNL     1      22.082  -1.532  54.543  1.00  0.00     0.004 A 
HETATM   23  C18 UNL     1      20.731  -1.619  54.317  1.00  0.00     0.042 A 
HETATM   24  C19 UNL     1      20.146  -0.632  53.556  1.00  0.00     0.117 A 
HETATM   25  F1  UNL     1      18.813  -0.700  53.321  1.00  0.00    -0.206 F 
HETATM   26  C20 UNL     1      20.924   0.396  53.055  1.00  0.00     0.051 A 
ENDBRANCH  19  20
ENDBRANCH  18  19
ENDBRANCH   7  18
TORSDOF 8
ENDMDL
MODEL 5
REMARK VINA RESULT:      -7.6      2.252      3.120
REMARK  8 active torsions:
REMARK  status: ('A' for Active; 'I' for Inactive)
REMARK    1  A    between atoms: N1_2  and  C2_3 
REMARK    2  A    between atoms: C2_3  and  C3_4 
REMARK    3  A    between atoms: C4_5  and  C5_6 
REMARK    4  A    between atoms: C5_6  and  C6_7 
REMARK    5  A    between atoms: C7_8  and  C8_9 
REMARK    6  A    between atoms: C13_15  and  O1_16 
REMARK    7  A    between atoms: O1_16  and  C14_17 
REMARK    8  A    between atoms: C14_17  and  C15_18 
ROOT
HETATM    1  C8  UNL     1      25.655   2.985  50.349  1.00  0.00     0.091 C 
HETATM    2  C9  UNL     1      26.144   2.442  51.426  1.00  0.00     0.042 C 
HETATM    3  N2  UNL     1      27.452   2.670  51.954  1.00  0.00    -0.391 N 
HETATM    4  C10 UNL     1      27.698   2.040  53.240  1.00  0.00     0.119 C 
HETATM    5  C11 UNL     1      27.411   0.577  53.266  1.00  0.00     0.022 C 
HETATM    6  C12 UNL     1      26.272   0.226  52.330  1.00  0.00     0.040 C 
HETATM    7  C13 UNL     1      25.368   1.471  52.284  1.00  0.00     0.171 C 
HETATM    8  H12 UNL     1      28.113   3.265  51.378  1.00  0.00     0.159 HD
ENDROOT
BRANCH   1   9
HETATM    9  C7  UNL     1      26.502   3.889  49.631  1.00  0.00    -0.076 C 
HETATM   10  C6  UNL     1      27.215   4.637  49.009  1.00  0.00    -0.098 C 
BRANCH  10  11
HETATM   11  C5  UNL     1      28.064   5.542  48.236  1.00  0.00     0.121 C 
BRANCH  11  12
HETATM   12  C4  UNL     1      27.644   6.938  48.573  1.00  0.00    -0.017 C 
HETATM   13  C3  UNL     1      26.559   7.556  48.961  1.00  0.00    -0.001 C 
BRANCH  13  14
HETATM   14  C2  UNL     1      25.760   8.740  49.364  1.00  0.00     0.296 C 
BRANCH  14  15
HETATM   15  N1  UNL     1      25.135   8.497  50.631  1.00  0.00     0.082 N 
HETATM   16  C1  UNL     1      24.662   7.137  50.772  1.00  0.00     0.307 C 
HETATM   17  H4  UNL     1      25.777   8.693  51.431  1.00  0.00     0.315 HD
ENDBRANCH  14  15
ENDBRANCH  13  14
ENDBRANCH  11  12
ENDBRANCH  10  11
ENDBRANCH   1   9
BRANCH   7  18
HETATM   18  O1  UNL     1      24.169   1.146  51.728  1.00  0.00    -0.375 OA
BRANCH  18  19
HETATM   19  C14 UNL     1      23.093   1.619  52.428  1.00  0.00     0.207 C 
BRANCH  19  20
HETATM   20  C15 UNL     1      22.253   0.579  53.043  1.00  0.00    -0.032 A 
HETATM   21  C16 UNL     1      20.938   0.239  52.831  1.00  0.00     0.009 A 
HETATM   22  C17 UNL     1      20.325  -0.792  53.505  1.00  0.00     0.004 A 
HETATM   23  C18 UNL     1      20.990  -1.550  54.436  1.00  0.00     0.042 A 
HETATM   24  C19 UNL     1      22.310  -1.246  54.682  1.00  0.00     0.117 A 
HETATM   25  F1  UNL     1      22.984  -1.982  55.598  1.00  0.00    -0.206 F 
HETATM   26  C20 UNL     1      22.912  -0.206  53.995  1.00  0.00     0.051 A 
ENDBRANCH  19  20
ENDBRANCH  18  19
ENDBRANCH   7  18
TORSDOF 8
ENDMDL
MODEL 6
REMARK VINA RESULT:      -7.5      2.749      4.406
REMARK  8 active torsions:
REMARK  status: ('A' for Active; 'I' for Inactive)
REMARK    1  A    between atoms: N1_2  and  C2_3 
REMARK    2  A    between atoms: C2_3  and  C3_4 
REMARK    3  A    between atoms: C4_5  and  C5_6 
REMARK    4  A    between atoms: C5_6  and  C6_7 
REMARK    5  A    between atoms: C7_8  and  C8_9 
REMARK    6  A    between atoms: C13_15  and  O1_16 
REMARK    7  A    between atoms: O1_16  and  C14_17 
REMARK    8  A    between atoms: C14_17  and  C15_18 
ROOT
HETATM    1  C8  UNL     1      25.872   3.590  49.535  1.00  0.00     0.091 C 
HETATM    2  C9  UNL     1      25.004   4.267  50.230  1.00  0.00     0.042 C 
HETATM    3  N2  UNL     1      25.095   5.657  50.550  1.00  0.00    -0.391 N 
HETATM    4  C10 UNL     1      23.927   6.193  51.228  1.00  0.00     0.119 C 
HETATM    5  C11 UNL     1      23.532   5.437  52.451  1.00  0.00     0.022 C 
HETATM    6  C12 UNL     1      23.855   3.963  52.311  1.00  0.00     0.040 C 
HETATM    7  C13 UNL     1      23.751   3.652  50.807  1.00  0.00     0.171 C 
HETATM    8  H12 UNL     1      25.983   6.163  50.272  1.00  0.00     0.159 HD
ENDROOT
BRANCH   1   9
HETATM    9  C7  UNL     1      27.016   4.300  49.048  1.00  0.00    -0.076 C 
HETATM   10  C6  UNL     1      27.973   4.894  48.618  1.00  0.00    -0.098 C 
BRANCH  10  11
HETATM   11  C5  UNL     1      29.119   5.627  48.081  1.00  0.00     0.121 C 
BRANCH  11  12
HETATM   12  C4  UNL     1      28.718   7.064  47.982  1.00  0.00    -0.017 C 
HETATM   13  C3  UNL     1      28.680   8.115  48.760  1.00  0.00    -0.001 C 
BRANCH  13  14
HETATM   14  C2  UNL     1      28.407   9.538  49.081  1.00  0.00     0.296 C 
BRANCH  14  15
HETATM   15  N1  UNL     1      29.411  10.035  49.976  1.00  0.00     0.082 N 
HETATM   16  C1  UNL     1      30.756   9.807  49.495  1.00  0.00     0.307 C 
HETATM   17  H4  UNL     1      29.308  11.060  50.153  1.00  0.00     0.315 HD
ENDBRANCH  14  15
ENDBRANCH  13  14
ENDBRANCH  11  12
ENDBRANCH  10  11
ENDBRANCH   1   9
BRANCH   7  18
HETATM   18  O1  UNL     1      23.712   2.305  50.620  1.00  0.00    -0.375 OA
BRANCH  18  19
HETATM   19  C14 UNL     1      23.449   1.599  51.762  1.00  0.00     0.207 C 
BRANCH  19  20
HETATM   20  C15 UNL     1      24.598   0.858  52.306  1.00  0.00    -0.032 A 
HETATM   21  C16 UNL     1      25.899   0.765  51.873  1.00  0.00     0.009 A 
HETATM   22  C17 UNL     1      26.846   0.021  52.537  1.00  0.00     0.004 A 
HETATM   23  C18 UNL     1      26.551  -0.680  53.679  1.00  0.00     0.042 A 
HETATM   24  C19 UNL     1      25.259  -0.617  54.152  1.00  0.00     0.117 A 
HETATM   25  F1  UNL     1      24.948  -1.302  55.278  1.00  0.00    -0.206 F 
HETATM   26  C20 UNL     1      24.319   0.137  53.472  1.00  0.00     0.051 A 
ENDBRANCH  19  20
ENDBRANCH  18  19
ENDBRANCH   7  18
TORSDOF 8
ENDMDL
MODEL 7
REMARK VINA RESULT:      -7.4      4.924     10.503
REMARK  8 active torsions:
REMARK  status: ('A' for Active; 'I' for Inactive)
REMARK    1  A    between atoms: N1_2  and  C2_3 
REMARK    2  A    between atoms: C2_3  and  C3_4 
REMARK    3  A    between atoms: C4_5  and  C5_6 
REMARK    4  A    between atoms: C5_6  and  C6_7 
REMARK    5  A    between atoms: C7_8  and  C8_9 
REMARK    6  A    between atoms: C13_15  and  O1_16 
REMARK    7  A    between atoms: O1_16  and  C14_17 
REMARK    8  A    between atoms: C14_17  and  C15_18 
ROOT
HETATM    1  C8  UNL     1      29.458   5.715  48.035  1.00  0.00     0.091 C 
HETATM    2  C9  UNL     1      29.700   6.957  48.339  1.00  0.00     0.042 C 
HETATM    3  N2  UNL     1      28.841   7.811  49.098  1.00  0.00    -0.391 N 
HETATM    4  C10 UNL     1      29.410   9.112  49.406  1.00  0.00     0.119 C 
HETATM    5  C11 UNL     1      29.908   9.857  48.213  1.00  0.00     0.022 C 
HETATM    6  C12 UNL     1      30.433   8.907  47.155  1.00  0.00     0.040 C 
HETATM    7  C13 UNL     1      30.958   7.678  47.919  1.00  0.00     0.171 C 
HETATM    8  H12 UNL     1      27.889   7.431  49.364  1.00  0.00     0.159 HD
ENDROOT
BRANCH   1   9
HETATM    9  C7  UNL     1      28.224   5.156  48.499  1.00  0.00    -0.076 C 
HETATM   10  C6  UNL     1      27.196   4.668  48.896  1.00  0.00    -0.098 C 
BRANCH  10  11
HETATM   11  C5  UNL     1      25.960   4.070  49.400  1.00  0.00     0.121 C 
BRANCH  11  12
HETATM   12  C4  UNL     1      26.344   2.872  50.208  1.00  0.00    -0.017 C 
HETATM   13  C3  UNL     1      26.523   2.570  51.469  1.00  0.00    -0.001 C 
BRANCH  13  14
HETATM   14  C2  UNL     1      26.854   1.667  52.598  1.00  0.00     0.296 C 
BRANCH  14  15
HETATM   15  N1  UNL     1      27.358   2.432  53.701  1.00  0.00     0.082 N 
HETATM   16  C1  UNL     1      28.803   2.485  53.735  1.00  0.00     0.307 C 
HETATM   17  H4  UNL     1      27.006   3.416  53.691  1.00  0.00     0.315 HD
ENDBRANCH  14  15
ENDBRANCH  13  14
ENDBRANCH  11  12
ENDBRANCH  10  11
ENDBRANCH   1   9
BRANCH   7  18
HETATM   18  O1  UNL     1      31.727   6.920  47.091  1.00  0.00    -0.375 OA
BRANCH  18  19
HETATM   19  C14 UNL     1      33.050   6.891  47.443  1.00  0.00     0.207 C 
BRANCH  19  20
HETATM   20  C15 UNL     1      33.744   5.633  47.127  1.00  0.00    -0.032 A 
HETATM   21  C16 UNL     1      34.228   4.639  47.944  1.00  0.00     0.009 A 
HETATM   22  C17 UNL     1      34.843   3.513  47.450  1.00  0.00     0.004 A 
HETATM   23  C18 UNL     1      35.015   3.308  46.105  1.00  0.00     0.042 A 
HETATM   24  C19 UNL     1      34.546   4.277  45.246  1.00  0.00     0.117 A 
HETATM   25  F1  UNL     1      34.706   4.093  43.913  1.00  0.00    -0.206 F 
HETATM   26  C20 UNL     1      33.929   5.404  45.759  1.00  0.00     0.051 A 
ENDBRANCH  19  20
ENDBRANCH  18  19
ENDBRANCH   7  18
TORSDOF 8
ENDMDL
MODEL 8
REMARK VINA RESULT:      -7.2      3.078      4.837
REMARK  8 active torsions:
REMARK  status: ('A' for Active; 'I' for Inactive)
REMARK    1  A    between atoms: N1_2  and  C2_3 
REMARK    2  A    between atoms: C2_3  and  C3_4 
REMARK    3  A    between atoms: C4_5  and  C5_6 
REMARK    4  A    between atoms: C5_6  and  C6_7 
REMARK    5  A    between atoms: C7_8  and  C8_9 
REMARK    6  A    between atoms: C13_15  and  O1_16 
REMARK    7  A    between atoms: O1_16  and  C14_17 
REMARK    8  A    between atoms: C14_17  and  C15_18 
ROOT
HETATM    1  C8  UNL     1      26.285   3.856  49.908  1.00  0.00     0.091 C 
HETATM    2  C9  UNL     1      25.152   3.530  50.458  1.00  0.00     0.042 C 
HETATM    3  N2  UNL     1      23.939   4.283  50.375  1.00  0.00    -0.391 N 
HETATM    4  C10 UNL     1      22.786   3.629  50.970  1.00  0.00     0.119 C 
HETATM    5  C11 UNL     1      22.994   3.195  52.382  1.00  0.00     0.022 C 
HETATM    6  C12 UNL     1      24.438   2.803  52.627  1.00  0.00     0.040 C 
HETATM    7  C13 UNL     1      24.964   2.278  51.280  1.00  0.00     0.171 C 
HETATM    8  H12 UNL     1      23.984   5.228  49.898  1.00  0.00     0.159 HD
ENDROOT
BRANCH   1   9
HETATM    9  C7  UNL     1      26.321   5.073  49.155  1.00  0.00    -0.076 C 
HETATM   10  C6  UNL     1      26.372   6.100  48.525  1.00  0.00    -0.098 C 
BRANCH  10  11
HETATM   11  C5  UNL     1      26.454   7.336  47.748  1.00  0.00     0.121 C 
BRANCH  11  12
HETATM   12  C4  UNL     1      27.613   8.118  48.280  1.00  0.00    -0.017 C 
HETATM   13  C3  UNL     1      28.905   8.187  48.088  1.00  0.00    -0.001 C 
BRANCH  13  14
HETATM   14  C2  UNL     1      30.271   8.713  48.330  1.00  0.00     0.296 C 
BRANCH  14  15
HETATM   15  N1  UNL     1      30.739   8.279  49.614  1.00  0.00     0.082 N 
HETATM   16  C1  UNL     1      31.948   7.488  49.533  1.00  0.00     0.307 C 
HETATM   17  H4  UNL     1      30.928   9.081  50.256  1.00  0.00     0.315 HD
ENDBRANCH  14  15
ENDBRANCH  13  14
ENDBRANCH  11  12
ENDBRANCH  10  11
ENDBRANCH   1   9
BRANCH   7  18
HETATM   18  O1  UNL     1      26.137   1.616  51.474  1.00  0.00    -0.375 OA
BRANCH  18  19
HETATM   19  C14 UNL     1      26.482   1.486  52.792  1.00  0.00     0.207 C 
BRANCH  19  20
HETATM   20  C15 UNL     1      27.609   0.573  53.046  1.00  0.00    -0.032 A 
HETATM   21  C16 UNL     1      28.877   0.814  53.517  1.00  0.00     0.009 A 
HETATM   22  C17 UNL     1      29.797  -0.191  53.703  1.00  0.00     0.004 A 
HETATM   23  C18 UNL     1      29.507  -1.504  53.430  1.00  0.00     0.042 A 
HETATM   24  C19 UNL     1      28.248  -1.794  52.954  1.00  0.00     0.117 A 
HETATM   25  F1  UNL     1      27.942  -3.085  52.677  1.00  0.00    -0.206 F 
HETATM   26  C20 UNL     1      27.334  -0.772  52.773  1.00  0.00     0.051 A 
ENDBRANCH  19  20
ENDBRANCH  18  19
ENDBRANCH   7  18
TORSDOF 8
ENDMDL
MODEL 9
REMARK VINA RESULT:      -7.2      2.938      4.800
REMARK  8 active torsions:
REMARK  status: ('A' for Active; 'I' for Inactive)
REMARK    1  A    between atoms: N1_2  and  C2_3 
REMARK    2  A    between atoms: C2_3  and  C3_4 
REMARK    3  A    between atoms: C4_5  and  C5_6 
REMARK    4  A    between atoms: C5_6  and  C6_7 
REMARK    5  A    between atoms: C7_8  and  C8_9 
REMARK    6  A    between atoms: C13_15  and  O1_16 
REMARK    7  A    between atoms: O1_16  and  C14_17 
REMARK    8  A    between atoms: C14_17  and  C15_18 
ROOT
HETATM    1  C8  UNL     1      25.925   3.784  49.446  1.00  0.00     0.091 C 
HETATM    2  C9  UNL     1      24.838   4.409  49.795  1.00  0.00     0.042 C 
HETATM    3  N2  UNL     1      24.633   5.823  49.733  1.00  0.00    -0.391 N 
HETATM    4  C10 UNL     1      23.283   6.247  50.059  1.00  0.00     0.119 C 
HETATM    5  C11 UNL     1      22.785   5.740  51.371  1.00  0.00     0.022 C 
HETATM    6  C12 UNL     1      23.367   4.377  51.687  1.00  0.00     0.040 C 
HETATM    7  C13 UNL     1      23.615   3.701  50.326  1.00  0.00     0.171 C 
HETATM    8  H12 UNL     1      25.463   6.423  49.462  1.00  0.00     0.159 HD
ENDROOT
BRANCH   1   9
HETATM    9  C7  UNL     1      27.009   4.581  48.959  1.00  0.00    -0.076 C 
HETATM   10  C6  UNL     1      27.924   5.263  48.567  1.00  0.00    -0.098 C 
BRANCH  10  11
HETATM   11  C5  UNL     1      29.045   6.084  48.113  1.00  0.00     0.121 C 
BRANCH  11  12
HETATM   12  C4  UNL     1      30.187   5.160  47.835  1.00  0.00    -0.017 C 
HETATM   13  C3  UNL     1      31.439   5.249  47.466  1.00  0.00    -0.001 C 
BRANCH  13  14
HETATM   14  C2  UNL     1      32.775   4.711  47.109  1.00  0.00     0.296 C 
BRANCH  14  15
HETATM   15  N1  UNL     1      32.624   3.505  46.347  1.00  0.00     0.082 N 
HETATM   16  C1  UNL     1      32.907   2.314  47.119  1.00  0.00     0.307 C 
HETATM   17  H4  UNL     1      31.661   3.406  45.954  1.00  0.00     0.315 HD
ENDBRANCH  14  15
ENDBRANCH  13  14
ENDBRANCH  11  12
ENDBRANCH  10  11
ENDBRANCH   1   9
BRANCH   7  18
HETATM   18  O1  UNL     1      23.836   2.371  50.510  1.00  0.00    -0.375 OA
BRANCH  18  19
HETATM   19  C14 UNL     1      23.722   1.970  51.814  1.00  0.00     0.207 C 
BRANCH  19  20
HETATM   20  C15 UNL     1      24.784   1.061  52.273  1.00  0.00    -0.032 A 
HETATM   21  C16 UNL     1      26.050   0.833  51.788  1.00  0.00     0.009 A 
HETATM   22  C17 UNL     1      26.914  -0.062  52.374  1.00  0.00     0.004 A 
HETATM   23  C18 UNL     1      26.567  -0.788  53.485  1.00  0.00     0.042 A 
HETATM   24  C19 UNL     1      25.308  -0.595  54.007  1.00  0.00     0.117 A 
HETATM   25  F1  UNL     1      24.945  -1.303  55.104  1.00  0.00    -0.206 F 
HETATM   26  C20 UNL     1      24.450   0.310  53.406  1.00  0.00     0.051 A 
ENDBRANCH  19  20
ENDBRANCH  18  19
ENDBRANCH   7  18
TORSDOF 8
ENDMDL
