MODEL 1
REMARK VINA RESULT:      -9.7      0.000      0.000
REMARK  2 active torsions:
REMARK  status: ('A' for Active; 'I' for Inactive)
REMARK    1  A    between atoms: O1_2  and  C2_3 
REMARK    2  A    between atoms: C14_18  and  C15_19 
ROOT
HETATM    1  C2  UNL     1      28.172   0.151  53.058  1.00  0.00     0.071 C 
HETATM    2  C3  UNL     1      27.254   1.017  52.590  1.00  0.00     0.066 C 
HETATM    3  C4  UNL     1      26.013   1.651  52.059  1.00  0.00     0.071 A 
HETATM    4  N1  UNL     1      26.216   2.413  50.986  1.00  0.00    -0.241 NA
HETATM    5  C5  UNL     1      25.220   3.110  50.437  1.00  0.00     0.235 A 
HETATM    6  N2  UNL     1      23.992   3.001  51.033  1.00  0.00    -0.224 NA
HETATM    7  C6  UNL     1      23.855   2.214  52.113  1.00  0.00     0.137 A 
HETATM    8  C7  UNL     1      24.811   1.467  52.735  1.00  0.00     0.021 A 
HETATM    9  C8  UNL     1      24.426   0.605  53.907  1.00  0.00     0.029 C 
HETATM   10  C9  UNL     1      23.201  -0.183  53.630  1.00  0.00     0.036 C 
HETATM   11  C10 UNL     1      22.766  -1.030  54.783  1.00  0.00     0.168 C 
HETATM   12  O2  UNL     1      21.736  -1.836  54.565  1.00  0.00    -0.391 OA
HETATM   13  C11 UNL     1      20.468  -1.568  54.316  1.00  0.00     0.168 C 
HETATM   14  C12 UNL     1      20.150  -0.628  53.208  1.00  0.00     0.031 C 
HETATM   15  C13 UNL     1      18.675  -0.807  52.754  1.00  0.00     0.040 C 
HETATM   16  C14 UNL     1      18.436   0.271  51.760  1.00  0.00    -0.032 C 
HETATM   17  C16 UNL     1      19.004   1.362  51.214  1.00  0.00     0.008 C 
HETATM   18  C17 UNL     1      20.143   2.258  51.154  1.00  0.00     0.017 C 
HETATM   19  C18 UNL     1      21.301   2.520  51.632  1.00  0.00     0.090 C 
HETATM   20  N3  UNL     1      22.493   2.503  52.362  1.00  0.00    -0.350 N 
HETATM   21  C19 UNL     1      25.581  -0.370  54.177  1.00  0.00     0.036 C 
HETATM   22  C20 UNL     1      25.830  -1.194  52.972  1.00  0.00     0.168 C 
HETATM   23  O3  UNL     1      26.962  -1.935  53.018  1.00  0.00    -0.385 OA
HETATM   24  C21 UNL     1      28.134  -1.288  53.318  1.00  0.00     0.232 C 
HETATM   25  H21 UNL     1      22.614   2.752  53.369  1.00  0.00     0.166 HD
ENDROOT
BRANCH  16  26
HETATM   26  C15 UNL     1      17.074  -0.153  51.337  1.00  0.00     0.295 C 
HETATM   27  F1  UNL     1      17.148  -0.604  50.026  1.00  0.00    -0.228 F 
HETATM   28 CL1  UNL     1      16.548  -1.454  52.442  1.00  0.00    -0.085 Cl
ENDBRANCH  16  26
BRANCH   1  29
HETATM   29  O1  UNL     1      29.512   0.448  53.447  1.00  0.00    -0.358 OA
HETATM   30  C1  UNL     1      30.306  -0.680  53.755  1.00  0.00     0.209 C 
ENDBRANCH   1  29
TORSDOF 2
ENDMDL
MODEL 2
REMARK VINA RESULT:      -9.7      2.687      4.171
REMARK  2 active torsions:
REMARK  status: ('A' for Active; 'I' for Inactive)
REMARK    1  A    between atoms: O1_2  and  C2_3 
REMARK    2  A    between atoms: C14_18  and  C15_19 
ROOT
HETATM    1  C2  UNL     1      28.236   0.193  54.357  1.00  0.00     0.071 C 
HETATM    2  C3  UNL     1      26.979  -0.288  54.358  1.00  0.00     0.066 C 
HETATM    3  C4  UNL     1      25.497  -0.441  54.291  1.00  0.00     0.071 A 
HETATM    4  N1  UNL     1      24.979  -1.111  55.318  1.00  0.00    -0.241 NA
HETATM    5  C5  UNL     1      23.677  -1.400  55.367  1.00  0.00     0.235 A 
HETATM    6  N2  UNL     1      22.913  -0.974  54.313  1.00  0.00    -0.224 NA
HETATM    7  C6  UNL     1      23.498  -0.302  53.308  1.00  0.00     0.137 A 
HETATM    8  C7  UNL     1      24.812   0.039  53.178  1.00  0.00     0.021 A 
HETATM    9  C8  UNL     1      25.249   0.850  51.989  1.00  0.00     0.029 C 
HETATM   10  C9  UNL     1      24.352   2.007  51.754  1.00  0.00     0.036 C 
HETATM   11  C10 UNL     1      24.733   2.822  50.559  1.00  0.00     0.168 C 
HETATM   12  O2  UNL     1      24.032   3.928  50.354  1.00  0.00    -0.391 OA
HETATM   13  C11 UNL     1      22.763   4.099  50.034  1.00  0.00     0.168 C 
HETATM   14  C12 UNL     1      21.729   3.427  50.866  1.00  0.00     0.031 C 
HETATM   15  C13 UNL     1      20.346   4.106  50.661  1.00  0.00     0.040 C 
HETATM   16  C14 UNL     1      19.381   3.267  51.417  1.00  0.00    -0.032 C 
HETATM   17  C16 UNL     1      19.282   2.117  52.109  1.00  0.00     0.008 C 
HETATM   18  C17 UNL     1      19.933   0.920  52.608  1.00  0.00     0.017 C 
HETATM   19  C18 UNL     1      21.028   0.260  52.654  1.00  0.00     0.090 C 
HETATM   20  N3  UNL     1      22.347  -0.173  52.496  1.00  0.00    -0.350 N 
HETATM   21  C19 UNL     1      26.662   1.380  52.270  1.00  0.00     0.036 C 
HETATM   22  C20 UNL     1      26.649   2.206  53.499  1.00  0.00     0.168 C 
HETATM   23  O3  UNL     1      27.875   2.546  53.965  1.00  0.00    -0.385 OA
HETATM   24  C21 UNL     1      28.782   1.536  54.162  1.00  0.00     0.232 C 
HETATM   25  H21 UNL     1      22.782  -0.552  51.626  1.00  0.00     0.166 HD
ENDROOT
BRANCH  16  26
HETATM   26  C15 UNL     1      18.188   4.139  51.242  1.00  0.00     0.295 C 
HETATM   27  F1  UNL     1      18.142   4.550  49.917  1.00  0.00    -0.228 F 
HETATM   28 CL1  UNL     1      16.748   3.173  51.672  1.00  0.00    -0.085 Cl
ENDBRANCH  16  26
BRANCH   1  29
HETATM   29  O1  UNL     1      29.437  -0.547  54.558  1.00  0.00    -0.358 OA
HETATM   30  C1  UNL     1      29.821  -1.366  53.473  1.00  0.00     0.209 C 
ENDBRANCH   1  29
TORSDOF 2
ENDMDL
MODEL 3
REMARK VINA RESULT:      -8.6      4.375      8.021
REMARK  2 active torsions:
REMARK  status: ('A' for Active; 'I' for Inactive)
REMARK    1  A    between atoms: O1_2  and  C2_3 
REMARK    2  A    between atoms: C14_18  and  C15_19 
ROOT
HETATM    1  C2  UNL     1      18.576   4.463  50.016  1.00  0.00     0.071 C 
HETATM    2  C3  UNL     1      19.881   4.591  49.711  1.00  0.00     0.066 C 
HETATM    3  C4  UNL     1      21.372   4.575  49.735  1.00  0.00     0.071 A 
HETATM    4  N1  UNL     1      21.927   5.736  49.393  1.00  0.00    -0.241 NA
HETATM    5  C5  UNL     1      23.251   5.864  49.291  1.00  0.00     0.235 A 
HETATM    6  N2  UNL     1      23.998   4.746  49.552  1.00  0.00    -0.224 NA
HETATM    7  C6  UNL     1      23.376   3.605  49.892  1.00  0.00     0.137 A 
HETATM    8  C7  UNL     1      22.037   3.387  50.024  1.00  0.00     0.021 A 
HETATM    9  C8  UNL     1      21.552   2.035  50.474  1.00  0.00     0.029 C 
HETATM   10  C9  UNL     1      22.311   1.542  51.648  1.00  0.00     0.036 C 
HETATM   11  C10 UNL     1      21.881   0.185  52.106  1.00  0.00     0.168 C 
HETATM   12  O2  UNL     1      22.451  -0.269  53.214  1.00  0.00    -0.391 OA
HETATM   13  C11 UNL     1      23.702  -0.609  53.464  1.00  0.00     0.168 C 
HETATM   14  C12 UNL     1      24.777   0.368  53.141  1.00  0.00     0.031 C 
HETATM   15  C13 UNL     1      26.074   0.022  53.923  1.00  0.00     0.040 C 
HETATM   16  C14 UNL     1      27.103   0.963  53.412  1.00  0.00    -0.032 C 
HETATM   17  C16 UNL     1      27.313   1.908  52.477  1.00  0.00     0.008 C 
HETATM   18  C17 UNL     1      26.793   2.670  51.357  1.00  0.00     0.017 C 
HETATM   19  C18 UNL     1      25.784   2.860  50.593  1.00  0.00     0.090 C 
HETATM   20  N3  UNL     1      24.534   2.797  49.972  1.00  0.00    -0.350 N 
HETATM   21  C19 UNL     1      20.075   2.170  50.872  1.00  0.00     0.036 C 
HETATM   22  C20 UNL     1      19.941   3.169  51.957  1.00  0.00     0.168 C 
HETATM   23  O3  UNL     1      18.666   3.530  52.238  1.00  0.00    -0.385 OA
HETATM   24  C21 UNL     1      17.880   3.952  51.197  1.00  0.00     0.232 C 
HETATM   25  H21 UNL     1      24.182   2.037  49.348  1.00  0.00     0.166 HD
ENDROOT
BRANCH  16  26
HETATM   26  C15 UNL     1      28.188   0.599  54.361  1.00  0.00     0.295 C 
HETATM   27  F1  UNL     1      27.630  -0.142  55.395  1.00  0.00    -0.228 F 
HETATM   28 CL1  UNL     1      29.396  -0.357  53.457  1.00  0.00    -0.085 Cl
ENDBRANCH  16  26
BRANCH   1  29
HETATM   29  O1  UNL     1      17.466   4.823  49.197  1.00  0.00    -0.358 OA
HETATM   30  C1  UNL     1      16.270   4.123  49.475  1.00  0.00     0.209 C 
ENDBRANCH   1  29
TORSDOF 2
ENDMDL
MODEL 4
REMARK VINA RESULT:      -8.4      6.545      9.168
REMARK  2 active torsions:
REMARK  status: ('A' for Active; 'I' for Inactive)
REMARK    1  A    between atoms: O1_2  and  C2_3 
REMARK    2  A    between atoms: C14_18  and  C15_19 
ROOT
HETATM    1  C2  UNL     1      29.190  10.497  47.741  1.00  0.00     0.071 C 
HETATM    2  C3  UNL     1      29.257   9.152  47.750  1.00  0.00     0.066 C 
HETATM    3  C4  UNL     1      29.103   7.706  48.079  1.00  0.00     0.071 A 
HETATM    4  N1  UNL     1      30.254   7.038  48.118  1.00  0.00    -0.241 NA
HETATM    5  C5  UNL     1      30.280   5.720  48.324  1.00  0.00     0.235 A 
HETATM    6  N2  UNL     1      29.070   5.100  48.488  1.00  0.00    -0.224 NA
HETATM    7  C6  UNL     1      27.945   5.832  48.437  1.00  0.00     0.137 A 
HETATM    8  C7  UNL     1      27.826   7.176  48.238  1.00  0.00     0.021 A 
HETATM    9  C8  UNL     1      26.461   7.808  48.275  1.00  0.00     0.029 C 
HETATM   10  C9  UNL     1      25.676   7.351  49.448  1.00  0.00     0.036 C 
HETATM   11  C10 UNL     1      24.300   7.933  49.504  1.00  0.00     0.168 C 
HETATM   12  O2  UNL     1      23.584   7.644  50.582  1.00  0.00    -0.391 OA
HETATM   13  C11 UNL     1      23.089   6.496  51.008  1.00  0.00     0.168 C 
HETATM   14  C12 UNL     1      24.010   5.334  51.133  1.00  0.00     0.031 C 
HETATM   15  C13 UNL     1      23.399   4.260  52.075  1.00  0.00     0.040 C 
HETATM   16  C14 UNL     1      24.327   3.102  52.004  1.00  0.00    -0.032 C 
HETATM   17  C16 UNL     1      25.417   2.648  51.358  1.00  0.00     0.008 C 
HETATM   18  C17 UNL     1      26.431   2.872  50.345  1.00  0.00     0.017 C 
HETATM   19  C18 UNL     1      26.861   3.676  49.447  1.00  0.00     0.090 C 
HETATM   20  N3  UNL     1      27.036   4.758  48.581  1.00  0.00    -0.350 N 
HETATM   21  C19 UNL     1      26.646   9.329  48.377  1.00  0.00     0.036 C 
HETATM   22  C20 UNL     1      27.416   9.657  49.599  1.00  0.00     0.168 C 
HETATM   23  O3  UNL     1      27.827  10.945  49.680  1.00  0.00    -0.385 OA
HETATM   24  C21 UNL     1      28.518  11.460  48.613  1.00  0.00     0.232 C 
HETATM   25  H21 UNL     1      26.451   4.996  47.749  1.00  0.00     0.166 HD
ENDROOT
BRANCH  16  26
HETATM   26  C15 UNL     1      23.683   2.273  53.057  1.00  0.00     0.295 C 
HETATM   27  F1  UNL     1      22.339   2.130  52.737  1.00  0.00    -0.228 F 
HETATM   28 CL1  UNL     1      24.515   0.693  53.082  1.00  0.00    -0.085 Cl
ENDBRANCH  16  26
BRANCH   1  29
HETATM   29  O1  UNL     1      29.805  11.380  46.806  1.00  0.00    -0.358 OA
HETATM   30  C1  UNL     1      31.218  11.393  46.841  1.00  0.00     0.209 C 
ENDBRANCH   1  29
TORSDOF 2
ENDMDL
MODEL 5
REMARK VINA RESULT:      -8.4      4.442      8.666
REMARK  2 active torsions:
REMARK  status: ('A' for Active; 'I' for Inactive)
REMARK    1  A    between atoms: O1_2  and  C2_3 
REMARK    2  A    between atoms: C14_18  and  C15_19 
ROOT
HETATM    1  C2  UNL     1      16.966   2.671  49.734  1.00  0.00     0.071 C 
HETATM    2  C3  UNL     1      17.479   1.933  50.735  1.00  0.00     0.066 C 
HETATM    3  C4  UNL     1      18.371   1.124  51.615  1.00  0.00     0.071 A 
HETATM    4  N1  UNL     1      17.826  -0.019  52.026  1.00  0.00    -0.241 NA
HETATM    5  C5  UNL     1      18.465  -0.820  52.880  1.00  0.00     0.235 A 
HETATM    6  N2  UNL     1      19.698  -0.404  53.307  1.00  0.00    -0.224 NA
HETATM    7  C6  UNL     1      20.191   0.760  52.853  1.00  0.00     0.137 A 
HETATM    8  C7  UNL     1      19.613   1.634  51.981  1.00  0.00     0.021 A 
HETATM    9  C8  UNL     1      20.371   2.863  51.558  1.00  0.00     0.029 C 
HETATM   10  C9  UNL     1      21.767   2.543  51.175  1.00  0.00     0.036 C 
HETATM   11  C10 UNL     1      22.565   3.744  50.779  1.00  0.00     0.168 C 
HETATM   12  O2  UNL     1      23.790   3.513  50.329  1.00  0.00    -0.391 OA
HETATM   13  C11 UNL     1      24.859   3.035  50.939  1.00  0.00     0.168 C 
HETATM   14  C12 UNL     1      24.734   1.750  51.679  1.00  0.00     0.031 C 
HETATM   15  C13 UNL     1      26.136   1.118  51.902  1.00  0.00     0.040 C 
HETATM   16  C14 UNL     1      25.898  -0.067  52.766  1.00  0.00    -0.032 C 
HETATM   17  C16 UNL     1      24.941  -0.698  53.471  1.00  0.00     0.008 C 
HETATM   18  C17 UNL     1      23.559  -0.736  53.910  1.00  0.00     0.017 C 
HETATM   19  C18 UNL     1      22.426  -0.142  53.872  1.00  0.00     0.090 C 
HETATM   20  N3  UNL     1      21.381   0.750  53.617  1.00  0.00    -0.350 N 
HETATM   21  C19 UNL     1      19.658   3.462  50.337  1.00  0.00     0.036 C 
HETATM   22  C20 UNL     1      19.616   2.464  49.245  1.00  0.00     0.168 C 
HETATM   23  O3  UNL     1      18.822   2.802  48.200  1.00  0.00    -0.385 OA
HETATM   24  C21 UNL     1      17.527   3.161  48.475  1.00  0.00     0.232 C 
HETATM   25  H21 UNL     1      21.263   1.708  54.018  1.00  0.00     0.166 HD
ENDROOT
BRANCH  16  26
HETATM   26  C15 UNL     1      27.282  -0.611  52.734  1.00  0.00     0.295 C 
HETATM   27  F1  UNL     1      27.899  -0.302  53.940  1.00  0.00    -0.228 F 
HETATM   28 CL1  UNL     1      27.161  -2.378  52.502  1.00  0.00    -0.085 Cl
ENDBRANCH  16  26
BRANCH   1  29
HETATM   29  O1  UNL     1      15.644   3.200  49.649  1.00  0.00    -0.358 OA
HETATM   30  C1  UNL     1      15.526   4.390  48.896  1.00  0.00     0.209 C 
ENDBRANCH   1  29
TORSDOF 2
ENDMDL
MODEL 6
REMARK VINA RESULT:      -8.2      4.791      8.392
REMARK  2 active torsions:
REMARK  status: ('A' for Active; 'I' for Inactive)
REMARK    1  A    between atoms: O1_2  and  C2_3 
REMARK    2  A    between atoms: C14_18  and  C15_19 
ROOT
HETATM    1  C2  UNL     1      19.691   3.458  47.419  1.00  0.00     0.071 C 
HETATM    2  C3  UNL     1      19.749   2.792  48.588  1.00  0.00     0.066 C 
HETATM    3  C4  UNL     1      20.186   1.985  49.763  1.00  0.00     0.071 A 
HETATM    4  N1  UNL     1      19.349   0.998  50.078  1.00  0.00    -0.241 NA
HETATM    5  C5  UNL     1      19.557   0.233  51.151  1.00  0.00     0.235 A 
HETATM    6  N2  UNL     1      20.666   0.518  51.903  1.00  0.00    -0.224 NA
HETATM    7  C6  UNL     1      21.470   1.527  51.530  1.00  0.00     0.137 A 
HETATM    8  C7  UNL     1      21.337   2.352  50.453  1.00  0.00     0.021 A 
HETATM    9  C8  UNL     1      22.393   3.391  50.186  1.00  0.00     0.029 C 
HETATM   10  C9  UNL     1      23.759   2.822  50.282  1.00  0.00     0.036 C 
HETATM   11  C10 UNL     1      24.839   3.831  50.055  1.00  0.00     0.168 C 
HETATM   12  O2  UNL     1      26.081   3.366  50.026  1.00  0.00    -0.391 OA
HETATM   13  C11 UNL     1      26.821   2.823  50.974  1.00  0.00     0.168 C 
HETATM   14  C12 UNL     1      26.259   1.680  51.742  1.00  0.00     0.031 C 
HETATM   15  C13 UNL     1      27.397   0.885  52.439  1.00  0.00     0.040 C 
HETATM   16  C14 UNL     1      26.710  -0.127  53.282  1.00  0.00    -0.032 C 
HETATM   17  C16 UNL     1      25.492  -0.513  53.705  1.00  0.00     0.008 C 
HETATM   18  C17 UNL     1      24.058  -0.291  53.696  1.00  0.00     0.017 C 
HETATM   19  C18 UNL     1      23.112   0.452  53.261  1.00  0.00     0.090 C 
HETATM   20  N3  UNL     1      22.364   1.445  52.623  1.00  0.00    -0.350 N 
HETATM   21  C19 UNL     1      22.186   3.921  48.759  1.00  0.00     0.036 C 
HETATM   22  C20 UNL     1      22.286   2.803  47.793  1.00  0.00     0.168 C 
HETATM   23  O3  UNL     1      21.906   3.112  46.530  1.00  0.00    -0.385 OA
HETATM   24  C21 UNL     1      20.673   3.688  46.360  1.00  0.00     0.232 C 
HETATM   25  H21 UNL     1      22.308   2.455  52.887  1.00  0.00     0.166 HD
ENDROOT
BRANCH  16  26
HETATM   26  C15 UNL     1      27.922  -0.867  53.724  1.00  0.00     0.295 C 
HETATM   27  F1  UNL     1      28.027  -2.024  52.964  1.00  0.00    -0.228 F 
HETATM   28 CL1  UNL     1      29.329   0.205  53.471  1.00  0.00    -0.085 Cl
ENDBRANCH  16  26
BRANCH   1  29
HETATM   29  O1  UNL     1      18.568   4.157  46.887  1.00  0.00    -0.358 OA
HETATM   30  C1  UNL     1      17.424   4.165  47.716  1.00  0.00     0.209 C 
ENDBRANCH   1  29
TORSDOF 2
ENDMDL
MODEL 7
REMARK VINA RESULT:      -8.1      4.637      7.248
REMARK  2 active torsions:
REMARK  status: ('A' for Active; 'I' for Inactive)
REMARK    1  A    between atoms: O1_2  and  C2_3 
REMARK    2  A    between atoms: C14_18  and  C15_19 
ROOT
HETATM    1  C2  UNL     1      22.001  -0.347  53.508  1.00  0.00     0.071 C 
HETATM    2  C3  UNL     1      23.086   0.364  53.148  1.00  0.00     0.066 C 
HETATM    3  C4  UNL     1      24.052   1.261  52.451  1.00  0.00     0.071 A 
HETATM    4  N1  UNL     1      25.246   0.708  52.246  1.00  0.00    -0.241 NA
HETATM    5  C5  UNL     1      26.245   1.406  51.703  1.00  0.00     0.235 A 
HETATM    6  N2  UNL     1      25.977   2.708  51.374  1.00  0.00    -0.224 NA
HETATM    7  C6  UNL     1      24.751   3.205  51.606  1.00  0.00     0.137 A 
HETATM    8  C7  UNL     1      23.676   2.566  52.149  1.00  0.00     0.021 A 
HETATM    9  C8  UNL     1      22.368   3.299  52.269  1.00  0.00     0.029 C 
HETATM   10  C9  UNL     1      22.015   4.004  51.012  1.00  0.00     0.036 C 
HETATM   11  C10 UNL     1      20.736   4.772  51.100  1.00  0.00     0.168 C 
HETATM   12  O2  UNL     1      20.314   5.340  49.979  1.00  0.00    -0.391 OA
HETATM   13  C11 UNL     1      20.826   6.324  49.264  1.00  0.00     0.168 C 
HETATM   14  C12 UNL     1      22.250   6.225  48.846  1.00  0.00     0.031 C 
HETATM   15  C13 UNL     1      22.530   7.179  47.651  1.00  0.00     0.040 C 
HETATM   16  C14 UNL     1      23.996   7.103  47.424  1.00  0.00    -0.032 C 
HETATM   17  C16 UNL     1      25.129   6.588  47.935  1.00  0.00     0.008 C 
HETATM   18  C17 UNL     1      25.765   5.806  48.979  1.00  0.00     0.017 C 
HETATM   19  C18 UNL     1      25.579   5.146  50.059  1.00  0.00     0.090 C 
HETATM   20  N3  UNL     1      25.020   4.526  51.180  1.00  0.00    -0.350 N 
HETATM   21  C19 UNL     1      21.272   2.266  52.570  1.00  0.00     0.036 C 
HETATM   22  C20 UNL     1      21.220   1.263  51.482  1.00  0.00     0.168 C 
HETATM   23  O3  UNL     1      20.444   0.184  51.744  1.00  0.00    -0.385 OA
HETATM   24  C21 UNL     1      20.673  -0.494  52.914  1.00  0.00     0.232 C 
HETATM   25  H21 UNL     1      24.659   4.996  52.041  1.00  0.00     0.166 HD
ENDROOT
BRANCH  16  26
HETATM   26  C15 UNL     1      24.043   7.925  46.185  1.00  0.00     0.295 C 
HETATM   27  F1  UNL     1      25.370   8.049  45.795  1.00  0.00    -0.228 F 
HETATM   28 CL1  UNL     1      23.078   7.081  44.941  1.00  0.00    -0.085 Cl
ENDBRANCH  16  26
BRANCH   1  29
HETATM   29  O1  UNL     1      21.871  -1.196  54.646  1.00  0.00    -0.358 OA
HETATM   30  C1  UNL     1      23.054  -1.365  55.400  1.00  0.00     0.209 C 
ENDBRANCH   1  29
TORSDOF 2
ENDMDL
MODEL 8
REMARK VINA RESULT:      -8.1      5.501      8.214
REMARK  2 active torsions:
REMARK  status: ('A' for Active; 'I' for Inactive)
REMARK    1  A    between atoms: O1_2  and  C2_3 
REMARK    2  A    between atoms: C14_18  and  C15_19 
ROOT
HETATM    1  C2  UNL     1      22.079   8.654  48.566  1.00  0.00     0.071 C 
HETATM    2  C3  UNL     1      23.215   7.932  48.555  1.00  0.00     0.066 C 
HETATM    3  C4  UNL     1      24.317   6.978  48.871  1.00  0.00     0.071 A 
HETATM    4  N1  UNL     1      25.527   7.532  48.858  1.00  0.00    -0.241 NA
HETATM    5  C5  UNL     1      26.624   6.796  49.045  1.00  0.00     0.235 A 
HETATM    6  N2  UNL     1      26.437   5.454  49.248  1.00  0.00    -0.224 NA
HETATM    7  C6  UNL     1      25.188   4.959  49.250  1.00  0.00     0.137 A 
HETATM    8  C7  UNL     1      24.017   5.634  49.073  1.00  0.00     0.021 A 
HETATM    9  C8  UNL     1      22.715   4.887  49.171  1.00  0.00     0.029 C 
HETATM   10  C9  UNL     1      22.672   4.012  50.367  1.00  0.00     0.036 C 
HETATM   11  C10 UNL     1      21.405   3.226  50.484  1.00  0.00     0.168 C 
HETATM   12  O2  UNL     1      21.263   2.501  51.585  1.00  0.00    -0.391 OA
HETATM   13  C11 UNL     1      21.928   1.445  52.015  1.00  0.00     0.168 C 
HETATM   14  C12 UNL     1      23.411   1.527  52.089  1.00  0.00     0.031 C 
HETATM   15  C13 UNL     1      23.966   0.430  53.040  1.00  0.00     0.040 C 
HETATM   16  C14 UNL     1      25.444   0.516  52.918  1.00  0.00    -0.032 C 
HETATM   17  C16 UNL     1      26.423   1.127  52.226  1.00  0.00     0.008 C 
HETATM   18  C17 UNL     1      26.792   2.059  51.177  1.00  0.00     0.017 C 
HETATM   19  C18 UNL     1      26.355   2.852  50.274  1.00  0.00     0.090 C 
HETATM   20  N3  UNL     1      25.545   3.600  49.415  1.00  0.00    -0.350 N 
HETATM   21  C19 UNL     1      21.584   5.921  49.285  1.00  0.00     0.036 C 
HETATM   22  C20 UNL     1      21.801   6.767  50.481  1.00  0.00     0.168 C 
HETATM   23  O3  UNL     1      20.990   7.849  50.562  1.00  0.00    -0.385 OA
HETATM   24  C21 UNL     1      20.934   8.684  49.476  1.00  0.00     0.232 C 
HETATM   25  H21 UNL     1      24.985   3.241  48.610  1.00  0.00     0.166 HD
ENDROOT
BRANCH  16  26
HETATM   26  C15 UNL     1      25.783  -0.463  53.985  1.00  0.00     0.295 C 
HETATM   27  F1  UNL     1      26.172  -1.650  53.378  1.00  0.00    -0.228 F 
HETATM   28 CL1  UNL     1      27.112   0.235  54.954  1.00  0.00    -0.085 Cl
ENDBRANCH  16  26
BRANCH   1  29
HETATM   29  O1  UNL     1      21.683   9.644  47.620  1.00  0.00    -0.358 OA
HETATM   30  C1  UNL     1      20.323   9.594  47.240  1.00  0.00     0.209 C 
ENDBRANCH   1  29
TORSDOF 2
ENDMDL
MODEL 9
REMARK VINA RESULT:      -7.9      3.339      4.403
REMARK  2 active torsions:
REMARK  status: ('A' for Active; 'I' for Inactive)
REMARK    1  A    between atoms: O1_2  and  C2_3 
REMARK    2  A    between atoms: C14_18  and  C15_19 
ROOT
HETATM    1  C2  UNL     1      26.113   0.933  53.777  1.00  0.00     0.071 C 
HETATM    2  C3  UNL     1      26.109   1.848  52.789  1.00  0.00     0.066 C 
HETATM    3  C4  UNL     1      25.798   2.646  51.569  1.00  0.00     0.071 A 
HETATM    4  N1  UNL     1      26.857   2.886  50.798  1.00  0.00    -0.241 NA
HETATM    5  C5  UNL     1      26.760   3.651  49.710  1.00  0.00     0.235 A 
HETATM    6  N2  UNL     1      25.523   4.172  49.434  1.00  0.00    -0.224 NA
HETATM    7  C6  UNL     1      24.495   3.891  50.252  1.00  0.00     0.137 A 
HETATM    8  C7  UNL     1      24.503   3.119  51.375  1.00  0.00     0.021 A 
HETATM    9  C8  UNL     1      23.216   2.887  52.119  1.00  0.00     0.029 C 
HETATM   10  C9  UNL     1      22.111   2.516  51.201  1.00  0.00     0.036 C 
HETATM   11  C10 UNL     1      20.805   2.307  51.898  1.00  0.00     0.168 C 
HETATM   12  O2  UNL     1      19.801   1.874  51.148  1.00  0.00    -0.391 OA
HETATM   13  C11 UNL     1      19.152   2.455  50.156  1.00  0.00     0.168 C 
HETATM   14  C12 UNL     1      19.942   3.017  49.028  1.00  0.00     0.031 C 
HETATM   15  C13 UNL     1      19.038   3.206  47.778  1.00  0.00     0.040 C 
HETATM   16  C14 UNL     1      19.891   3.900  46.779  1.00  0.00    -0.032 C 
HETATM   17  C16 UNL     1      21.095   4.482  46.625  1.00  0.00     0.008 C 
HETATM   18  C17 UNL     1      22.362   4.863  47.218  1.00  0.00     0.017 C 
HETATM   19  C18 UNL     1      23.066   4.862  48.287  1.00  0.00     0.090 C 
HETATM   20  N3  UNL     1      23.531   4.689  49.593  1.00  0.00    -0.350 N 
HETATM   21  C19 UNL     1      23.439   1.729  53.103  1.00  0.00     0.036 C 
HETATM   22  C20 UNL     1      23.849   0.516  52.361  1.00  0.00     0.168 C 
HETATM   23  O3  UNL     1      24.284  -0.503  53.140  1.00  0.00    -0.385 OA
HETATM   24  C21 UNL     1      25.271  -0.231  54.052  1.00  0.00     0.232 C 
HETATM   25  H21 UNL     1      23.216   5.206  50.445  1.00  0.00     0.166 HD
ENDROOT
BRANCH  16  26
HETATM   26  C15 UNL     1      18.937   3.847  45.639  1.00  0.00     0.295 C 
HETATM   27  F1  UNL     1      19.573   3.232  44.568  1.00  0.00    -0.228 F 
HETATM   28 CL1  UNL     1      17.513   2.908  46.171  1.00  0.00    -0.085 Cl
ENDBRANCH  16  26
BRANCH   1  29
HETATM   29  O1  UNL     1      27.009   0.871  54.884  1.00  0.00    -0.358 OA
HETATM   30  C1  UNL     1      28.267   0.293  54.600  1.00  0.00     0.209 C 
ENDBRANCH   1  29
TORSDOF 2
ENDMDL
