MODEL 1
REMARK VINA RESULT:      -7.1      0.000      0.000
REMARK  7 active torsions:
REMARK  status: ('A' for Active; 'I' for Inactive)
REMARK    1  A    between atoms: N1_9  and  C7_10 
REMARK    2  A    between atoms: C8_11  and  C9_12 
REMARK    3  A    between atoms: C10_13  and  C11_14 
REMARK    4  A    between atoms: N2_16  and  C12_17 
REMARK    5  A    between atoms: C12_17  and  C13_18 
REMARK    6  A    between atoms: C13_18  and  C14_19 
REMARK    7  A    between atoms: C14_19  and  N3_20 
ROOT
HETATM    1  O1  UNL     1      25.642  -1.210  54.521  1.00  0.00    -0.271 OA
HETATM    2  C1  UNL     1      25.715  -0.455  53.511  1.00  0.00     0.248 C 
HETATM    3  C2  UNL     1      26.886  -0.305  52.633  1.00  0.00     0.280 C 
HETATM    4  O2  UNL     1      26.970   1.002  52.083  1.00  0.00    -0.324 OA
HETATM    5  C3  UNL     1      25.850   1.746  51.786  1.00  0.00     0.176 A 
HETATM    6  C4  UNL     1      24.621   1.451  52.315  1.00  0.00     0.090 A 
HETATM    7  C5  UNL     1      23.722   2.386  51.816  1.00  0.00     0.052 A 
HETATM    8  C6  UNL     1      24.463   3.214  50.997  1.00  0.00     0.101 A 
HETATM    9  N1  UNL     1      25.773   2.818  50.980  1.00  0.00    -0.312 N 
HETATM   10  N2  UNL     1      24.539   0.322  53.204  1.00  0.00    -0.312 N 
ENDROOT
BRANCH  10  11
HETATM   11  C12 UNL     1      23.194   0.018  53.775  1.00  0.00     0.134 C 
BRANCH  11  12
HETATM   12  C13 UNL     1      22.430  -0.860  52.857  1.00  0.00     0.050 C 
BRANCH  12  13
HETATM   13  C14 UNL     1      21.282  -0.279  52.118  1.00  0.00     0.274 C 
BRANCH  13  14
HETATM   14  N3  UNL     1      20.255   0.404  52.792  1.00  0.00     0.088 N 
HETATM   15  C15 UNL     1      19.683   1.573  52.248  1.00  0.00     0.272 C 
HETATM   16  C16 UNL     1      19.264   1.396  50.792  1.00  0.00     0.030 C 
HETATM   17  C17 UNL     1      18.390   0.151  50.788  1.00  0.00     0.003 C 
HETATM   18  C18 UNL     1      17.995  -0.290  52.154  1.00  0.00     0.030 C 
HETATM   19  C19 UNL     1      19.132  -0.492  53.121  1.00  0.00     0.272 C 
ENDBRANCH  13  14
ENDBRANCH  12  13
ENDBRANCH  11  12
ENDBRANCH  10  11
BRANCH   9  20
HETATM   20  C7  UNL     1      26.690   3.558  50.185  1.00  0.00     0.095 C 
HETATM   21  C8  UNL     1      26.357   4.383  49.174  1.00  0.00    -0.003 C 
BRANCH  21  22
HETATM   22  C9  UNL     1      27.656   4.894  48.689  1.00  0.00     0.023 C 
HETATM   23  C10 UNL     1      28.302   5.947  48.259  1.00  0.00     0.009 C 
BRANCH  23  24
HETATM   24  C11 UNL     1      29.700   5.632  47.943  1.00  0.00     0.090 C 
HETATM   25 BR1  UNL     1      30.878   7.012  48.630  1.00  0.00    -0.096 Br
ENDBRANCH  23  24
ENDBRANCH  21  22
ENDBRANCH   9  20
TORSDOF 7
ENDMDL
MODEL 2
REMARK VINA RESULT:      -7.0      3.576      5.459
REMARK  7 active torsions:
REMARK  status: ('A' for Active; 'I' for Inactive)
REMARK    1  A    between atoms: N1_9  and  C7_10 
REMARK    2  A    between atoms: C8_11  and  C9_12 
REMARK    3  A    between atoms: C10_13  and  C11_14 
REMARK    4  A    between atoms: N2_16  and  C12_17 
REMARK    5  A    between atoms: C12_17  and  C13_18 
REMARK    6  A    between atoms: C13_18  and  C14_19 
REMARK    7  A    between atoms: C14_19  and  N3_20 
ROOT
HETATM    1  O1  UNL     1      21.847   5.578  51.718  1.00  0.00    -0.271 OA
HETATM    2  C1  UNL     1      23.053   5.615  51.345  1.00  0.00     0.248 C 
HETATM    3  C2  UNL     1      23.846   6.833  51.118  1.00  0.00     0.280 C 
HETATM    4  O2  UNL     1      24.822   6.647  50.103  1.00  0.00    -0.324 OA
HETATM    5  C3  UNL     1      25.441   5.435  49.894  1.00  0.00     0.176 A 
HETATM    6  C4  UNL     1      24.924   4.262  50.380  1.00  0.00     0.090 A 
HETATM    7  C5  UNL     1      25.784   3.241  49.994  1.00  0.00     0.052 A 
HETATM    8  C6  UNL     1      26.794   3.856  49.281  1.00  0.00     0.101 A 
HETATM    9  N1  UNL     1      26.581   5.206  49.221  1.00  0.00    -0.312 N 
HETATM   10  N2  UNL     1      23.697   4.342  51.127  1.00  0.00    -0.312 N 
ENDROOT
BRANCH  10  11
HETATM   11  C12 UNL     1      23.145   3.055  51.646  1.00  0.00     0.134 C 
BRANCH  11  12
HETATM   12  C13 UNL     1      23.752   2.725  52.957  1.00  0.00     0.050 C 
BRANCH  12  13
HETATM   13  C14 UNL     1      24.303   1.362  53.156  1.00  0.00     0.274 C 
BRANCH  13  14
HETATM   14  N3  UNL     1      25.451   1.150  53.941  1.00  0.00     0.088 N 
HETATM   15  C15 UNL     1      25.919  -0.154  54.203  1.00  0.00     0.272 C 
HETATM   16  C16 UNL     1      26.044  -0.997  52.938  1.00  0.00     0.030 C 
HETATM   17  C17 UNL     1      26.885  -0.155  51.991  1.00  0.00     0.003 C 
HETATM   18  C18 UNL     1      27.534   1.006  52.662  1.00  0.00     0.030 C 
HETATM   19  C19 UNL     1      26.605   1.910  53.430  1.00  0.00     0.272 C 
ENDBRANCH  13  14
ENDBRANCH  12  13
ENDBRANCH  11  12
ENDBRANCH  10  11
BRANCH   9  20
HETATM   20  C7  UNL     1      27.525   6.006  48.523  1.00  0.00     0.095 C 
HETATM   21  C8  UNL     1      28.787   5.643  48.224  1.00  0.00    -0.003 C 
BRANCH  21  22
HETATM   22  C9  UNL     1      29.334   6.813  47.506  1.00  0.00     0.023 C 
HETATM   23  C10 UNL     1      29.090   7.729  46.605  1.00  0.00     0.009 C 
BRANCH  23  24
HETATM   24  C11 UNL     1      30.237   8.626  46.422  1.00  0.00     0.090 C 
HETATM   25 BR1  UNL     1      31.146   8.918  48.112  1.00  0.00    -0.096 Br
ENDBRANCH  23  24
ENDBRANCH  21  22
ENDBRANCH   9  20
TORSDOF 7
ENDMDL
MODEL 3
REMARK VINA RESULT:      -6.9      5.146      9.369
REMARK  7 active torsions:
REMARK  status: ('A' for Active; 'I' for Inactive)
REMARK    1  A    between atoms: N1_9  and  C7_10 
REMARK    2  A    between atoms: C8_11  and  C9_12 
REMARK    3  A    between atoms: C10_13  and  C11_14 
REMARK    4  A    between atoms: N2_16  and  C12_17 
REMARK    5  A    between atoms: C12_17  and  C13_18 
REMARK    6  A    between atoms: C13_18  and  C14_19 
REMARK    7  A    between atoms: C14_19  and  N3_20 
ROOT
HETATM    1  O1  UNL     1      22.432   4.390  52.060  1.00  0.00    -0.271 OA
HETATM    2  C1  UNL     1      22.023   3.196  52.094  1.00  0.00     0.248 C 
HETATM    3  C2  UNL     1      20.763   2.702  51.517  1.00  0.00     0.280 C 
HETATM    4  O2  UNL     1      20.239   1.606  52.252  1.00  0.00    -0.324 OA
HETATM    5  C3  UNL     1      21.051   0.693  52.888  1.00  0.00     0.176 A 
HETATM    6  C4  UNL     1      22.366   0.960  53.163  1.00  0.00     0.090 A 
HETATM    7  C5  UNL     1      22.889  -0.159  53.803  1.00  0.00     0.052 A 
HETATM    8  C6  UNL     1      21.847  -1.061  53.883  1.00  0.00     0.101 A 
HETATM    9  N1  UNL     1      20.716  -0.534  53.320  1.00  0.00    -0.312 N 
HETATM   10  N2  UNL     1      22.877   2.243  52.760  1.00  0.00    -0.312 N 
ENDROOT
BRANCH  10  11
HETATM   11  C12 UNL     1      24.311   2.519  53.073  1.00  0.00     0.134 C 
BRANCH  11  12
HETATM   12  C13 UNL     1      25.188   1.934  52.031  1.00  0.00     0.050 C 
BRANCH  12  13
HETATM   13  C14 UNL     1      26.644   1.847  52.303  1.00  0.00     0.274 C 
BRANCH  13  14
HETATM   14  N3  UNL     1      27.133   1.751  53.617  1.00  0.00     0.088 N 
HETATM   15  C15 UNL     1      26.883   0.606  54.402  1.00  0.00     0.272 C 
HETATM   16  C16 UNL     1      27.220  -0.690  53.671  1.00  0.00     0.030 C 
HETATM   17  C17 UNL     1      28.650  -0.502  53.187  1.00  0.00     0.003 C 
HETATM   18  C18 UNL     1      29.325   0.674  53.801  1.00  0.00     0.030 C 
HETATM   19  C19 UNL     1      28.588   1.981  53.674  1.00  0.00     0.272 C 
ENDBRANCH  13  14
ENDBRANCH  12  13
ENDBRANCH  11  12
ENDBRANCH  10  11
BRANCH   9  20
HETATM   20  C7  UNL     1      19.537  -1.327  53.312  1.00  0.00     0.095 C 
HETATM   21  C8  UNL     1      18.286  -0.864  53.121  1.00  0.00    -0.003 C 
BRANCH  21  22
HETATM   22  C9  UNL     1      17.442  -2.074  53.205  1.00  0.00     0.023 C 
HETATM   23  C10 UNL     1      17.422  -3.350  53.491  1.00  0.00     0.009 C 
BRANCH  23  24
HETATM   24  C11 UNL     1      16.082  -3.921  53.317  1.00  0.00     0.090 C 
HETATM   25 BR1  UNL     1      15.859  -5.483  54.448  1.00  0.00    -0.096 Br
ENDBRANCH  23  24
ENDBRANCH  21  22
ENDBRANCH   9  20
TORSDOF 7
ENDMDL
MODEL 4
REMARK VINA RESULT:      -6.7      3.525      5.993
REMARK  7 active torsions:
REMARK  status: ('A' for Active; 'I' for Inactive)
REMARK    1  A    between atoms: N1_9  and  C7_10 
REMARK    2  A    between atoms: C8_11  and  C9_12 
REMARK    3  A    between atoms: C10_13  and  C11_14 
REMARK    4  A    between atoms: N2_16  and  C12_17 
REMARK    5  A    between atoms: C12_17  and  C13_18 
REMARK    6  A    between atoms: C13_18  and  C14_19 
REMARK    7  A    between atoms: C14_19  and  N3_20 
ROOT
HETATM    1  O1  UNL     1      18.916   1.453  51.745  1.00  0.00    -0.271 OA
HETATM    2  C1  UNL     1      20.174   1.365  51.666  1.00  0.00     0.248 C 
HETATM    3  C2  UNL     1      20.929   0.164  51.277  1.00  0.00     0.280 C 
HETATM    4  O2  UNL     1      22.196   0.106  51.915  1.00  0.00    -0.324 OA
HETATM    5  C3  UNL     1      22.915   1.240  52.223  1.00  0.00     0.176 A 
HETATM    6  C4  UNL     1      22.331   2.479  52.272  1.00  0.00     0.090 A 
HETATM    7  C5  UNL     1      23.325   3.391  52.607  1.00  0.00     0.052 A 
HETATM    8  C6  UNL     1      24.480   2.647  52.746  1.00  0.00     0.101 A 
HETATM    9  N1  UNL     1      24.225   1.323  52.509  1.00  0.00    -0.312 N 
HETATM   10  N2  UNL     1      20.922   2.555  51.989  1.00  0.00    -0.312 N 
ENDROOT
BRANCH  10  11
HETATM   11  C12 UNL     1      20.301   3.911  52.052  1.00  0.00     0.134 C 
BRANCH  11  12
HETATM   12  C13 UNL     1      20.051   4.429  50.686  1.00  0.00     0.050 C 
BRANCH  12  13
HETATM   13  C14 UNL     1      21.191   5.006  49.931  1.00  0.00     0.274 C 
BRANCH  13  14
HETATM   14  N3  UNL     1      21.436   4.641  48.596  1.00  0.00     0.088 N 
HETATM   15  C15 UNL     1      22.615   5.048  47.938  1.00  0.00     0.272 C 
HETATM   16  C16 UNL     1      23.871   4.753  48.751  1.00  0.00     0.030 C 
HETATM   17  C17 UNL     1      23.769   3.276  49.102  1.00  0.00     0.003 C 
HETATM   18  C18 UNL     1      22.709   2.565  48.335  1.00  0.00     0.030 C 
HETATM   19  C19 UNL     1      21.337   3.183  48.404  1.00  0.00     0.272 C 
ENDBRANCH  13  14
ENDBRANCH  12  13
ENDBRANCH  11  12
ENDBRANCH  10  11
BRANCH   9  20
HETATM   20  C7  UNL     1      25.303   0.402  52.606  1.00  0.00     0.095 C 
HETATM   21  C8  UNL     1      26.508   0.545  52.022  1.00  0.00    -0.003 C 
BRANCH  21  22
HETATM   22  C9  UNL     1      27.249  -0.665  52.432  1.00  0.00     0.023 C 
HETATM   23  C10 UNL     1      27.155  -1.943  52.697  1.00  0.00     0.009 C 
BRANCH  23  24
HETATM   24  C11 UNL     1      28.453  -2.515  53.072  1.00  0.00     0.090 C 
HETATM   25 BR1  UNL     1      29.705  -1.107  53.537  1.00  0.00    -0.096 Br
ENDBRANCH  23  24
ENDBRANCH  21  22
ENDBRANCH   9  20
TORSDOF 7
ENDMDL
MODEL 5
REMARK VINA RESULT:      -6.6      4.701      8.713
REMARK  7 active torsions:
REMARK  status: ('A' for Active; 'I' for Inactive)
REMARK    1  A    between atoms: N1_9  and  C7_10 
REMARK    2  A    between atoms: C8_11  and  C9_12 
REMARK    3  A    between atoms: C10_13  and  C11_14 
REMARK    4  A    between atoms: N2_16  and  C12_17 
REMARK    5  A    between atoms: C12_17  and  C13_18 
REMARK    6  A    between atoms: C13_18  and  C14_19 
REMARK    7  A    between atoms: C14_19  and  N3_20 
ROOT
HETATM    1  O1  UNL     1      23.454   5.308  52.323  1.00  0.00    -0.271 OA
HETATM    2  C1  UNL     1      22.705   4.324  52.065  1.00  0.00     0.248 C 
HETATM    3  C2  UNL     1      21.279   4.398  51.712  1.00  0.00     0.280 C 
HETATM    4  O2  UNL     1      20.565   3.253  52.153  1.00  0.00    -0.324 OA
HETATM    5  C3  UNL     1      21.144   2.005  52.212  1.00  0.00     0.176 A 
HETATM    6  C4  UNL     1      22.503   1.834  52.202  1.00  0.00     0.090 A 
HETATM    7  C5  UNL     1      22.747   0.467  52.272  1.00  0.00     0.052 A 
HETATM    8  C6  UNL     1      21.504  -0.130  52.321  1.00  0.00     0.101 A 
HETATM    9  N1  UNL     1      20.517   0.819  52.284  1.00  0.00    -0.312 N 
HETATM   10  N2  UNL     1      23.316   3.019  52.128  1.00  0.00    -0.312 N 
ENDROOT
BRANCH  10  11
HETATM   11  C12 UNL     1      24.795   2.815  52.124  1.00  0.00     0.134 C 
BRANCH  11  12
HETATM   12  C13 UNL     1      25.278   2.511  53.492  1.00  0.00     0.050 C 
BRANCH  12  13
HETATM   13  C14 UNL     1      26.642   1.947  53.650  1.00  0.00     0.274 C 
BRANCH  13  14
HETATM   14  N3  UNL     1      26.900   0.920  54.574  1.00  0.00     0.088 N 
HETATM   15  C15 UNL     1      26.160  -0.280  54.549  1.00  0.00     0.272 C 
HETATM   16  C16 UNL     1      26.093  -0.898  53.156  1.00  0.00     0.030 C 
HETATM   17  C17 UNL     1      27.541  -0.987  52.700  1.00  0.00     0.003 C 
HETATM   18  C18 UNL     1      28.516  -0.749  53.801  1.00  0.00     0.030 C 
HETATM   19  C19 UNL     1      28.321   0.531  54.571  1.00  0.00     0.272 C 
ENDBRANCH  13  14
ENDBRANCH  12  13
ENDBRANCH  11  12
ENDBRANCH  10  11
BRANCH   9  20
HETATM   20  C7  UNL     1      19.165   0.385  52.326  1.00  0.00     0.095 C 
HETATM   21  C8  UNL     1      18.482  -0.143  51.293  1.00  0.00    -0.003 C 
BRANCH  21  22
HETATM   22  C9  UNL     1      17.144  -0.420  51.855  1.00  0.00     0.023 C 
HETATM   23  C10 UNL     1      16.352  -1.344  52.335  1.00  0.00     0.009 C 
BRANCH  23  24
HETATM   24  C11 UNL     1      15.050  -0.791  52.723  1.00  0.00     0.090 C 
HETATM   25 BR1  UNL     1      14.967   1.104  52.311  1.00  0.00    -0.096 Br
ENDBRANCH  23  24
ENDBRANCH  21  22
ENDBRANCH   9  20
TORSDOF 7
ENDMDL
MODEL 6
REMARK VINA RESULT:      -6.5      4.957      9.374
REMARK  7 active torsions:
REMARK  status: ('A' for Active; 'I' for Inactive)
REMARK    1  A    between atoms: N1_9  and  C7_10 
REMARK    2  A    between atoms: C8_11  and  C9_12 
REMARK    3  A    between atoms: C10_13  and  C11_14 
REMARK    4  A    between atoms: N2_16  and  C12_17 
REMARK    5  A    between atoms: C12_17  and  C13_18 
REMARK    6  A    between atoms: C13_18  and  C14_19 
REMARK    7  A    between atoms: C14_19  and  N3_20 
ROOT
HETATM    1  O1  UNL     1      23.869   2.576  50.482  1.00  0.00    -0.271 OA
HETATM    2  C1  UNL     1      22.995   1.750  50.869  1.00  0.00     0.248 C 
HETATM    3  C2  UNL     1      21.860   1.261  50.072  1.00  0.00     0.280 C 
HETATM    4  O2  UNL     1      20.735   0.957  50.883  1.00  0.00    -0.324 OA
HETATM    5  C3  UNL     1      20.866   0.478  52.168  1.00  0.00     0.176 A 
HETATM    6  C4  UNL     1      22.035   0.598  52.872  1.00  0.00     0.090 A 
HETATM    7  C5  UNL     1      21.827   0.018  54.118  1.00  0.00     0.052 A 
HETATM    8  C6  UNL     1      20.522  -0.432  54.105  1.00  0.00     0.101 A 
HETATM    9  N1  UNL     1      19.932  -0.147  52.903  1.00  0.00    -0.312 N 
HETATM   10  N2  UNL     1      23.136   1.251  52.216  1.00  0.00    -0.312 N 
ENDROOT
BRANCH  10  11
HETATM   11  C12 UNL     1      24.401   1.379  53.000  1.00  0.00     0.134 C 
BRANCH  11  12
HETATM   12  C13 UNL     1      25.351   0.305  52.623  1.00  0.00     0.050 C 
BRANCH  12  13
HETATM   13  C14 UNL     1      26.805   0.578  52.739  1.00  0.00     0.274 C 
BRANCH  13  14
HETATM   14  N3  UNL     1      27.373   0.981  53.961  1.00  0.00     0.088 N 
HETATM   15  C15 UNL     1      27.994   0.046  54.815  1.00  0.00     0.272 C 
HETATM   16  C16 UNL     1      29.005  -0.832  54.085  1.00  0.00     0.030 C 
HETATM   17  C17 UNL     1      29.925   0.146  53.371  1.00  0.00     0.003 C 
HETATM   18  C18 UNL     1      29.750   1.553  53.827  1.00  0.00     0.030 C 
HETATM   19  C19 UNL     1      28.340   2.077  53.775  1.00  0.00     0.272 C 
ENDBRANCH  13  14
ENDBRANCH  12  13
ENDBRANCH  11  12
ENDBRANCH  10  11
BRANCH   9  20
HETATM   20  C7  UNL     1      18.580  -0.539  52.708  1.00  0.00     0.095 C 
HETATM   21  C8  UNL     1      18.009  -1.652  53.207  1.00  0.00    -0.003 C 
BRANCH  21  22
HETATM   22  C9  UNL     1      16.616  -1.588  52.720  1.00  0.00     0.023 C 
HETATM   23  C10 UNL     1      15.853  -1.426  51.670  1.00  0.00     0.009 C 
BRANCH  23  24
HETATM   24  C11 UNL     1      14.430  -1.499  52.019  1.00  0.00     0.090 C 
HETATM   25 BR1  UNL     1      13.896   0.078  53.018  1.00  0.00    -0.096 Br
ENDBRANCH  23  24
ENDBRANCH  21  22
ENDBRANCH   9  20
TORSDOF 7
ENDMDL
MODEL 7
REMARK VINA RESULT:      -6.5      4.227      8.667
REMARK  7 active torsions:
REMARK  status: ('A' for Active; 'I' for Inactive)
REMARK    1  A    between atoms: N1_9  and  C7_10 
REMARK    2  A    between atoms: C8_11  and  C9_12 
REMARK    3  A    between atoms: C10_13  and  C11_14 
REMARK    4  A    between atoms: N2_16  and  C12_17 
REMARK    5  A    between atoms: C12_17  and  C13_18 
REMARK    6  A    between atoms: C13_18  and  C14_19 
REMARK    7  A    between atoms: C14_19  and  N3_20 
ROOT
HETATM    1  O1  UNL     1      24.644  -0.904  54.568  1.00  0.00    -0.271 OA
HETATM    2  C1  UNL     1      23.493  -0.540  54.198  1.00  0.00     0.248 C 
HETATM    3  C2  UNL     1      22.232  -0.831  54.898  1.00  0.00     0.280 C 
HETATM    4  O2  UNL     1      21.141  -0.945  53.996  1.00  0.00    -0.324 OA
HETATM    5  C3  UNL     1      21.070  -0.212  52.833  1.00  0.00     0.176 A 
HETATM    6  C4  UNL     1      22.172   0.391  52.287  1.00  0.00     0.090 A 
HETATM    7  C5  UNL     1      21.757   1.042  51.131  1.00  0.00     0.052 A 
HETATM    8  C6  UNL     1      20.402   0.797  51.034  1.00  0.00     0.101 A 
HETATM    9  N1  UNL     1      19.981   0.025  52.083  1.00  0.00    -0.312 N 
HETATM   10  N2  UNL     1      23.424   0.229  52.979  1.00  0.00    -0.312 N 
ENDROOT
BRANCH  10  11
HETATM   11  C12 UNL     1      24.616   0.888  52.367  1.00  0.00     0.134 C 
BRANCH  11  12
HETATM   12  C13 UNL     1      24.666   2.320  52.747  1.00  0.00     0.050 C 
BRANCH  12  13
HETATM   13  C14 UNL     1      24.797   3.331  51.669  1.00  0.00     0.274 C 
BRANCH  13  14
HETATM   14  N3  UNL     1      25.055   2.948  50.342  1.00  0.00     0.088 N 
HETATM   15  C15 UNL     1      24.346   3.528  49.269  1.00  0.00     0.272 C 
HETATM   16  C16 UNL     1      24.334   5.052  49.332  1.00  0.00     0.030 C 
HETATM   17  C17 UNL     1      25.796   5.448  49.469  1.00  0.00     0.003 C 
HETATM   18  C18 UNL     1      26.734   4.322  49.205  1.00  0.00     0.030 C 
HETATM   19  C19 UNL     1      26.485   3.073  50.009  1.00  0.00     0.272 C 
ENDBRANCH  13  14
ENDBRANCH  12  13
ENDBRANCH  11  12
ENDBRANCH  10  11
BRANCH   9  20
HETATM   20  C7  UNL     1      18.606  -0.330  52.149  1.00  0.00     0.095 C 
HETATM   21  C8  UNL     1      18.071  -1.225  53.001  1.00  0.00    -0.003 C 
BRANCH  21  22
HETATM   22  C9  UNL     1      16.632  -1.222  52.662  1.00  0.00     0.023 C 
HETATM   23  C10 UNL     1      15.547  -0.495  52.597  1.00  0.00     0.009 C 
BRANCH  23  24
HETATM   24  C11 UNL     1      14.401  -1.277  52.121  1.00  0.00     0.090 C 
HETATM   25 BR1  UNL     1      14.788  -3.177  52.217  1.00  0.00    -0.096 Br
ENDBRANCH  23  24
ENDBRANCH  21  22
ENDBRANCH   9  20
TORSDOF 7
ENDMDL
MODEL 8
REMARK VINA RESULT:      -6.5      4.011      6.519
REMARK  7 active torsions:
REMARK  status: ('A' for Active; 'I' for Inactive)
REMARK    1  A    between atoms: N1_9  and  C7_10 
REMARK    2  A    between atoms: C8_11  and  C9_12 
REMARK    3  A    between atoms: C10_13  and  C11_14 
REMARK    4  A    between atoms: N2_16  and  C12_17 
REMARK    5  A    between atoms: C12_17  and  C13_18 
REMARK    6  A    between atoms: C13_18  and  C14_19 
REMARK    7  A    between atoms: C14_19  and  N3_20 
ROOT
HETATM    1  O1  UNL     1      23.249   4.819  50.856  1.00  0.00    -0.271 OA
HETATM    2  C1  UNL     1      24.301   5.477  50.624  1.00  0.00     0.248 C 
HETATM    3  C2  UNL     1      24.545   6.875  51.011  1.00  0.00     0.280 C 
HETATM    4  O2  UNL     1      25.397   7.539  50.089  1.00  0.00    -0.324 OA
HETATM    5  C3  UNL     1      26.399   6.881  49.411  1.00  0.00     0.176 A 
HETATM    6  C4  UNL     1      26.421   5.516  49.295  1.00  0.00     0.090 A 
HETATM    7  C5  UNL     1      27.553   5.183  48.559  1.00  0.00     0.052 A 
HETATM    8  C6  UNL     1      28.169   6.383  48.263  1.00  0.00     0.101 A 
HETATM    9  N1  UNL     1      27.456   7.427  48.788  1.00  0.00    -0.312 N 
HETATM   10  N2  UNL     1      25.348   4.784  49.913  1.00  0.00    -0.312 N 
ENDROOT
BRANCH  10  11
HETATM   11  C12 UNL     1      25.385   3.297  49.772  1.00  0.00     0.134 C 
BRANCH  11  12
HETATM   12  C13 UNL     1      26.362   2.713  50.722  1.00  0.00     0.050 C 
BRANCH  12  13
HETATM   13  C14 UNL     1      25.848   2.074  51.958  1.00  0.00     0.274 C 
BRANCH  13  14
HETATM   14  N3  UNL     1      25.589   0.693  52.007  1.00  0.00     0.088 N 
HETATM   15  C15 UNL     1      26.645  -0.241  52.049  1.00  0.00     0.272 C 
HETATM   16  C16 UNL     1      27.678   0.090  53.121  1.00  0.00     0.030 C 
HETATM   17  C17 UNL     1      26.872   0.254  54.400  1.00  0.00     0.003 C 
HETATM   18  C18 UNL     1      25.469  -0.229  54.273  1.00  0.00     0.030 C 
HETATM   19  C19 UNL     1      24.689   0.349  53.122  1.00  0.00     0.272 C 
ENDBRANCH  13  14
ENDBRANCH  12  13
ENDBRANCH  11  12
ENDBRANCH  10  11
BRANCH   9  20
HETATM   20  C7  UNL     1      27.943   8.746  48.581  1.00  0.00     0.095 C 
HETATM   21  C8  UNL     1      29.188   9.173  48.868  1.00  0.00    -0.003 C 
BRANCH  21  22
HETATM   22  C9  UNL     1      29.178  10.595  48.469  1.00  0.00     0.023 C 
HETATM   23  C10 UNL     1      29.558  11.803  48.795  1.00  0.00     0.009 C 
BRANCH  23  24
HETATM   24  C11 UNL     1      29.131  12.791  47.798  1.00  0.00     0.090 C 
HETATM   25 BR1  UNL     1      27.451  13.607  48.328  1.00  0.00    -0.096 Br
ENDBRANCH  23  24
ENDBRANCH  21  22
ENDBRANCH   9  20
TORSDOF 7
ENDMDL
MODEL 9
REMARK VINA RESULT:      -6.5      4.445     10.384
REMARK  7 active torsions:
REMARK  status: ('A' for Active; 'I' for Inactive)
REMARK    1  A    between atoms: N1_9  and  C7_10 
REMARK    2  A    between atoms: C8_11  and  C9_12 
REMARK    3  A    between atoms: C10_13  and  C11_14 
REMARK    4  A    between atoms: N2_16  and  C12_17 
REMARK    5  A    between atoms: C12_17  and  C13_18 
REMARK    6  A    between atoms: C13_18  and  C14_19 
REMARK    7  A    between atoms: C14_19  and  N3_20 
ROOT
HETATM    1  O1  UNL     1      26.003   9.889  49.830  1.00  0.00    -0.271 OA
HETATM    2  C1  UNL     1      25.677   8.670  49.775  1.00  0.00     0.248 C 
HETATM    3  C2  UNL     1      24.472   8.074  50.373  1.00  0.00     0.280 C 
HETATM    4  O2  UNL     1      24.689   6.728  50.770  1.00  0.00    -0.324 OA
HETATM    5  C3  UNL     1      25.543   5.890  50.088  1.00  0.00     0.176 A 
HETATM    6  C4  UNL     1      26.496   6.370  49.227  1.00  0.00     0.090 A 
HETATM    7  C5  UNL     1      27.177   5.272  48.714  1.00  0.00     0.052 A 
HETATM    8  C6  UNL     1      26.593   4.166  49.298  1.00  0.00     0.101 A 
HETATM    9  N1  UNL     1      25.587   4.549  50.144  1.00  0.00    -0.312 N 
HETATM   10  N2  UNL     1      26.575   7.797  49.059  1.00  0.00    -0.312 N 
ENDROOT
BRANCH  10  11
HETATM   11  C12 UNL     1      27.622   8.302  48.122  1.00  0.00     0.134 C 
BRANCH  11  12
HETATM   12  C13 UNL     1      28.909   8.480  48.835  1.00  0.00     0.050 C 
BRANCH  12  13
HETATM   13  C14 UNL     1      30.117   7.816  48.287  1.00  0.00     0.274 C 
BRANCH  13  14
HETATM   14  N3  UNL     1      31.168   7.411  49.128  1.00  0.00     0.088 N 
HETATM   15  C15 UNL     1      31.457   6.044  49.321  1.00  0.00     0.272 C 
HETATM   16  C16 UNL     1      31.577   5.280  48.006  1.00  0.00     0.030 C 
HETATM   17  C17 UNL     1      32.582   6.074  47.186  1.00  0.00     0.003 C 
HETATM   18  C18 UNL     1      33.311   7.097  47.985  1.00  0.00     0.030 C 
HETATM   19  C19 UNL     1      32.441   8.055  48.756  1.00  0.00     0.272 C 
ENDBRANCH  13  14
ENDBRANCH  12  13
ENDBRANCH  11  12
ENDBRANCH  10  11
BRANCH   9  20
HETATM   20  C7  UNL     1      24.870   3.538  50.837  1.00  0.00     0.095 C 
HETATM   21  C8  UNL     1      25.376   2.356  51.239  1.00  0.00    -0.003 C 
BRANCH  21  22
HETATM   22  C9  UNL     1      24.237   1.687  51.901  1.00  0.00     0.023 C 
HETATM   23  C10 UNL     1      23.887   0.821  52.816  1.00  0.00     0.009 C 
BRANCH  23  24
HETATM   24  C11 UNL     1      22.429   0.678  52.895  1.00  0.00     0.090 C 
HETATM   25 BR1  UNL     1      21.946  -0.609  54.265  1.00  0.00    -0.096 Br
ENDBRANCH  23  24
ENDBRANCH  21  22
ENDBRANCH   9  20
TORSDOF 7
ENDMDL
