MODEL 1
REMARK VINA RESULT:      -7.8      0.000      0.000
REMARK  8 active torsions:
REMARK  status: ('A' for Active; 'I' for Inactive)
REMARK    1  A    between atoms: C2_2  and  N1_3 
REMARK    2  A    between atoms: C5_7  and  N3_8 
REMARK    3  A    between atoms: N3_8  and  C6_9 
REMARK    4  A    between atoms: C9_12  and  C10_13 
REMARK    5  A    between atoms: C12_18  and  N5_19 
REMARK    6  A    between atoms: N5_19  and  C13_20 
REMARK    7  A    between atoms: C13_20  and  C14_21 
REMARK    8  A    between atoms: C14_21  and  N6_22 
ROOT
HETATM    1  N1  UNL     1      27.986   0.745  53.796  1.00  0.00    -0.324 N 
HETATM    2  C3  UNL     1      27.129   0.159  54.678  1.00  0.00     0.212 A 
HETATM    3  N2  UNL     1      25.855   0.510  54.419  1.00  0.00    -0.236 NA
HETATM    4  C4  UNL     1      25.842   1.336  53.359  1.00  0.00     0.151 A 
HETATM    5  C5  UNL     1      24.872   2.014  52.634  1.00  0.00     0.180 A 
HETATM    6  N4  UNL     1      25.252   2.781  51.593  1.00  0.00    -0.043 NA
HETATM    7  C12 UNL     1      26.545   2.897  51.247  1.00  0.00     0.726 A 
HETATM    8  N7  UNL     1      27.495   2.244  51.942  1.00  0.00    -0.042 NA
HETATM    9  C15 UNL     1      27.169   1.467  52.990  1.00  0.00     0.182 A 
ENDROOT
BRANCH   5  10
HETATM   10  N3  UNL     1      23.550   1.804  53.104  1.00  0.00    -0.338 N 
HETATM   11  H7  UNL     1      23.450   2.307  53.992  1.00  0.00     0.167 HD
BRANCH  10  12
HETATM   12  C6  UNL     1      22.531   1.046  52.489  1.00  0.00     0.046 A 
HETATM   13  C7  UNL     1      22.032   0.941  51.267  1.00  0.00     0.031 A 
HETATM   14  C8  UNL     1      21.120  -0.055  51.817  1.00  0.00     0.018 A 
HETATM   15  C9  UNL     1      21.625   0.056  53.039  1.00  0.00     0.039 A 
BRANCH  15  16
HETATM   16  C10 UNL     1      21.366  -0.564  54.363  1.00  0.00     0.269 C 
HETATM   17  C11 UNL     1      22.643  -1.189  54.908  1.00  0.00     0.096 C 
HETATM   18  F1  UNL     1      20.903   0.396  55.229  1.00  0.00    -0.201 F 
HETATM   19  F2  UNL     1      20.413  -1.578  54.274  1.00  0.00    -0.201 F 
ENDBRANCH  15  16
ENDBRANCH  10  12
ENDBRANCH   5  10
BRANCH   7  20
HETATM   20  N5  UNL     1      26.894   3.717  50.141  1.00  0.00    -0.221 N 
HETATM   21  H13 UNL     1      27.876   3.749  49.818  1.00  0.00     0.177 HD
BRANCH  20  22
HETATM   22  C13 UNL     1      25.911   4.506  49.457  1.00  0.00     0.168 C 
BRANCH  22  23
HETATM   23  C14 UNL     1      26.528   5.766  48.882  1.00  0.00     0.286 C 
BRANCH  23  24
HETATM   24  N6  UNL     1      27.980   5.623  48.936  1.00  0.00     0.079 N 
HETATM   25  H18 UNL     1      28.339   6.598  49.163  1.00  0.00     0.312 HD
HETATM   26  H19 UNL     1      28.353   5.358  48.006  1.00  0.00     0.312 HD
ENDBRANCH  23  24
ENDBRANCH  22  23
ENDBRANCH  20  22
ENDBRANCH   7  20
BRANCH   1  27
HETATM   27  C2  UNL     1      29.417   0.643  53.709  1.00  0.00     0.127 C 
HETATM   28  C1  UNL     1      29.916  -0.770  53.568  1.00  0.00     0.027 C 
ENDBRANCH   1  27
TORSDOF 8
ENDMDL
MODEL 2
REMARK VINA RESULT:      -7.2      1.181      4.281
REMARK  8 active torsions:
REMARK  status: ('A' for Active; 'I' for Inactive)
REMARK    1  A    between atoms: C2_2  and  N1_3 
REMARK    2  A    between atoms: C5_7  and  N3_8 
REMARK    3  A    between atoms: N3_8  and  C6_9 
REMARK    4  A    between atoms: C9_12  and  C10_13 
REMARK    5  A    between atoms: C12_18  and  N5_19 
REMARK    6  A    between atoms: N5_19  and  C13_20 
REMARK    7  A    between atoms: C13_20  and  C14_21 
REMARK    8  A    between atoms: C14_21  and  N6_22 
ROOT
HETATM    1  N1  UNL     1      26.066   4.189  49.613  1.00  0.00    -0.324 N 
HETATM    2  C3  UNL     1      24.788   4.637  49.467  1.00  0.00     0.212 A 
HETATM    3  N2  UNL     1      23.961   4.028  50.338  1.00  0.00    -0.236 NA
HETATM    4  C4  UNL     1      24.675   3.164  51.079  1.00  0.00     0.151 A 
HETATM    5  C5  UNL     1      24.404   2.272  52.107  1.00  0.00     0.180 A 
HETATM    6  N4  UNL     1      25.416   1.545  52.622  1.00  0.00    -0.043 NA
HETATM    7  C12 UNL     1      26.671   1.670  52.161  1.00  0.00     0.726 A 
HETATM    8  N7  UNL     1      26.946   2.532  51.164  1.00  0.00    -0.042 NA
HETATM    9  C15 UNL     1      25.973   3.280  50.614  1.00  0.00     0.182 A 
ENDROOT
BRANCH   5  10
HETATM   10  N3  UNL     1      23.041   2.239  52.499  1.00  0.00    -0.338 N 
HETATM   11  H7  UNL     1      22.902   2.966  53.208  1.00  0.00     0.167 HD
BRANCH  10  12
HETATM   12  C6  UNL     1      22.033   1.376  52.021  1.00  0.00     0.046 A 
HETATM   13  C7  UNL     1      21.357   1.238  50.891  1.00  0.00     0.031 A 
HETATM   14  C8  UNL     1      20.671   0.125  51.535  1.00  0.00     0.018 A 
HETATM   15  C9  UNL     1      21.350   0.269  52.666  1.00  0.00     0.039 A 
BRANCH  15  16
HETATM   16  C10 UNL     1      21.385  -0.407  53.986  1.00  0.00     0.269 C 
HETATM   17  C11 UNL     1      22.800  -0.872  54.301  1.00  0.00     0.096 C 
HETATM   18  F1  UNL     1      20.949   0.465  54.953  1.00  0.00    -0.201 F 
HETATM   19  F2  UNL     1      20.565  -1.535  54.004  1.00  0.00    -0.201 F 
ENDBRANCH  15  16
ENDBRANCH  10  12
ENDBRANCH   5  10
BRANCH   7  20
HETATM   20  N5  UNL     1      27.702   0.881  52.737  1.00  0.00    -0.221 N 
HETATM   21  H13 UNL     1      28.516   0.604  52.163  1.00  0.00     0.177 HD
BRANCH  20  22
HETATM   22  C13 UNL     1      27.641   0.459  54.107  1.00  0.00     0.168 C 
BRANCH  22  23
HETATM   23  C14 UNL     1      28.969   0.680  54.805  1.00  0.00     0.286 C 
BRANCH  23  24
HETATM   24  N6  UNL     1      29.421   2.034  54.499  1.00  0.00     0.079 N 
HETATM   25  H18 UNL     1      30.469   2.015  54.672  1.00  0.00     0.312 HD
HETATM   26  H19 UNL     1      29.004   2.713  55.162  1.00  0.00     0.312 HD
ENDBRANCH  23  24
ENDBRANCH  22  23
ENDBRANCH  20  22
ENDBRANCH   7  20
BRANCH   1  27
HETATM   27  C2  UNL     1      27.253   4.568  48.898  1.00  0.00     0.127 C 
HETATM   28  C1  UNL     1      27.279   6.017  48.491  1.00  0.00     0.027 C 
ENDBRANCH   1  27
TORSDOF 8
ENDMDL
MODEL 3
REMARK VINA RESULT:      -7.1      3.137      6.523
REMARK  8 active torsions:
REMARK  status: ('A' for Active; 'I' for Inactive)
REMARK    1  A    between atoms: C2_2  and  N1_3 
REMARK    2  A    between atoms: C5_7  and  N3_8 
REMARK    3  A    between atoms: N3_8  and  C6_9 
REMARK    4  A    between atoms: C9_12  and  C10_13 
REMARK    5  A    between atoms: C12_18  and  N5_19 
REMARK    6  A    between atoms: N5_19  and  C13_20 
REMARK    7  A    between atoms: C13_20  and  C14_21 
REMARK    8  A    between atoms: C14_21  and  N6_22 
ROOT
HETATM    1  N1  UNL     1      22.669  -0.051  52.760  1.00  0.00    -0.324 N 
HETATM    2  C3  UNL     1      22.020   0.688  51.818  1.00  0.00     0.212 A 
HETATM    3  N2  UNL     1      22.743   1.769  51.470  1.00  0.00    -0.236 NA
HETATM    4  C4  UNL     1      23.886   1.768  52.176  1.00  0.00     0.151 A 
HETATM    5  C5  UNL     1      25.005   2.586  52.264  1.00  0.00     0.180 A 
HETATM    6  N4  UNL     1      25.992   2.250  53.119  1.00  0.00    -0.043 NA
HETATM    7  C12 UNL     1      25.912   1.146  53.879  1.00  0.00     0.726 A 
HETATM    8  N7  UNL     1      24.833   0.345  53.801  1.00  0.00    -0.042 NA
HETATM    9  C15 UNL     1      23.819   0.634  52.965  1.00  0.00     0.182 A 
ENDROOT
BRANCH   5  10
HETATM   10  N3  UNL     1      24.961   3.716  51.408  1.00  0.00    -0.338 N 
HETATM   11  H7  UNL     1      24.170   4.299  51.701  1.00  0.00     0.167 HD
BRANCH  10  12
HETATM   12  C6  UNL     1      25.831   4.016  50.339  1.00  0.00     0.046 A 
HETATM   13  C7  UNL     1      26.843   3.409  49.738  1.00  0.00     0.031 A 
HETATM   14  C8  UNL     1      26.921   4.580  48.873  1.00  0.00     0.018 A 
HETATM   15  C9  UNL     1      25.907   5.183  49.480  1.00  0.00     0.039 A 
BRANCH  15  16
HETATM   16  C10 UNL     1      25.186   6.472  49.333  1.00  0.00     0.269 C 
HETATM   17  C11 UNL     1      25.531   7.401  50.489  1.00  0.00     0.096 C 
HETATM   18  F1  UNL     1      25.538   7.054  48.139  1.00  0.00    -0.201 F 
HETATM   19  F2  UNL     1      23.804   6.289  49.347  1.00  0.00    -0.201 F 
ENDBRANCH  15  16
ENDBRANCH  10  12
ENDBRANCH   5  10
BRANCH   7  20
HETATM   20  N5  UNL     1      26.979   0.836  54.763  1.00  0.00    -0.221 N 
HETATM   21  H13 UNL     1      26.862   0.985  55.779  1.00  0.00     0.177 HD
BRANCH  20  22
HETATM   22  C13 UNL     1      28.225   0.317  54.276  1.00  0.00     0.168 C 
BRANCH  22  23
HETATM   23  C14 UNL     1      29.361   1.283  54.549  1.00  0.00     0.286 C 
BRANCH  23  24
HETATM   24  N6  UNL     1      29.063   2.537  53.864  1.00  0.00     0.079 N 
HETATM   25  H18 UNL     1      30.013   2.963  53.653  1.00  0.00     0.312 HD
HETATM   26  H19 UNL     1      28.559   3.186  54.497  1.00  0.00     0.312 HD
ENDBRANCH  23  24
ENDBRANCH  22  23
ENDBRANCH  20  22
ENDBRANCH   7  20
BRANCH   1  27
HETATM   27  C2  UNL     1      22.262  -1.271  53.403  1.00  0.00     0.127 C 
HETATM   28  C1  UNL     1      21.320  -1.061  54.559  1.00  0.00     0.027 C 
ENDBRANCH   1  27
TORSDOF 8
ENDMDL
MODEL 4
REMARK VINA RESULT:      -7.1      2.246      2.885
REMARK  8 active torsions:
REMARK  status: ('A' for Active; 'I' for Inactive)
REMARK    1  A    between atoms: C2_2  and  N1_3 
REMARK    2  A    between atoms: C5_7  and  N3_8 
REMARK    3  A    between atoms: N3_8  and  C6_9 
REMARK    4  A    between atoms: C9_12  and  C10_13 
REMARK    5  A    between atoms: C12_18  and  N5_19 
REMARK    6  A    between atoms: N5_19  and  C13_20 
REMARK    7  A    between atoms: C13_20  and  C14_21 
REMARK    8  A    between atoms: C14_21  and  N6_22 
ROOT
HETATM    1  N1  UNL     1      27.629   0.356  53.396  1.00  0.00    -0.324 N 
HETATM    2  C3  UNL     1      27.405  -0.988  53.390  1.00  0.00     0.212 A 
HETATM    3  N2  UNL     1      26.089  -1.258  53.311  1.00  0.00    -0.236 NA
HETATM    4  C4  UNL     1      25.413  -0.098  53.261  1.00  0.00     0.151 A 
HETATM    5  C5  UNL     1      24.079   0.276  53.176  1.00  0.00     0.180 A 
HETATM    6  N4  UNL     1      23.770   1.588  53.149  1.00  0.00    -0.043 NA
HETATM    7  C12 UNL     1      24.725   2.531  53.202  1.00  0.00     0.726 A 
HETATM    8  N7  UNL     1      26.022   2.181  53.284  1.00  0.00    -0.042 NA
HETATM    9  C15 UNL     1      26.384   0.886  53.315  1.00  0.00     0.182 A 
ENDROOT
BRANCH   5  10
HETATM   10  N3  UNL     1      23.175  -0.817  53.127  1.00  0.00    -0.338 N 
HETATM   11  H7  UNL     1      23.701  -1.643  52.823  1.00  0.00     0.167 HD
BRANCH  10  12
HETATM   12  C6  UNL     1      21.799  -0.805  53.433  1.00  0.00     0.046 A 
HETATM   13  C7  UNL     1      21.042  -1.251  54.424  1.00  0.00     0.031 A 
HETATM   14  C8  UNL     1      19.907  -0.701  53.693  1.00  0.00     0.018 A 
HETATM   15  C9  UNL     1      20.671  -0.258  52.702  1.00  0.00     0.039 A 
BRANCH  15  16
HETATM   16  C10 UNL     1      20.453   0.469  51.427  1.00  0.00     0.269 C 
HETATM   17  C11 UNL     1      20.402   1.970  51.681  1.00  0.00     0.096 C 
HETATM   18  F1  UNL     1      21.473   0.173  50.556  1.00  0.00    -0.201 F 
HETATM   19  F2  UNL     1      19.243   0.108  50.834  1.00  0.00    -0.201 F 
ENDBRANCH  15  16
ENDBRANCH  10  12
ENDBRANCH   5  10
BRANCH   7  20
HETATM   20  N5  UNL     1      24.348   3.900  53.169  1.00  0.00    -0.221 N 
HETATM   21  H13 UNL     1      24.789   4.568  53.824  1.00  0.00     0.177 HD
BRANCH  20  22
HETATM   22  C13 UNL     1      23.362   4.381  52.244  1.00  0.00     0.168 C 
BRANCH  22  23
HETATM   23  C14 UNL     1      23.794   5.697  51.625  1.00  0.00     0.286 C 
BRANCH  23  24
HETATM   24  N6  UNL     1      25.001   5.454  50.841  1.00  0.00     0.079 N 
HETATM   25  H18 UNL     1      24.649   5.246  49.860  1.00  0.00     0.312 HD
HETATM   26  H19 UNL     1      25.493   4.609  51.186  1.00  0.00     0.312 HD
ENDBRANCH  23  24
ENDBRANCH  22  23
ENDBRANCH  20  22
ENDBRANCH   7  20
BRANCH   1  27
HETATM   27  C2  UNL     1      28.871   1.075  53.468  1.00  0.00     0.127 C 
HETATM   28  C1  UNL     1      30.080   0.184  53.581  1.00  0.00     0.027 C 
ENDBRANCH   1  27
TORSDOF 8
ENDMDL
MODEL 5
REMARK VINA RESULT:      -7.1      3.010      6.640
REMARK  8 active torsions:
REMARK  status: ('A' for Active; 'I' for Inactive)
REMARK    1  A    between atoms: C2_2  and  N1_3 
REMARK    2  A    between atoms: C5_7  and  N3_8 
REMARK    3  A    between atoms: N3_8  and  C6_9 
REMARK    4  A    between atoms: C9_12  and  C10_13 
REMARK    5  A    between atoms: C12_18  and  N5_19 
REMARK    6  A    between atoms: N5_19  and  C13_20 
REMARK    7  A    between atoms: C13_20  and  C14_21 
REMARK    8  A    between atoms: C14_21  and  N6_22 
ROOT
HETATM    1  N1  UNL     1      21.872   0.547  53.603  1.00  0.00    -0.324 N 
HETATM    2  C3  UNL     1      21.160   1.302  52.720  1.00  0.00     0.212 A 
HETATM    3  N2  UNL     1      21.973   1.889  51.822  1.00  0.00    -0.236 NA
HETATM    4  C4  UNL     1      23.241   1.536  52.092  1.00  0.00     0.151 A 
HETATM    5  C5  UNL     1      24.489   1.805  51.547  1.00  0.00     0.180 A 
HETATM    6  N4  UNL     1      25.580   1.249  52.111  1.00  0.00    -0.043 NA
HETATM    7  C12 UNL     1      25.479   0.445  53.182  1.00  0.00     0.726 A 
HETATM    8  N7  UNL     1      24.274   0.177  53.719  1.00  0.00    -0.042 NA
HETATM    9  C15 UNL     1      23.154   0.706  53.196  1.00  0.00     0.182 A 
ENDROOT
BRANCH   5  10
HETATM   10  N3  UNL     1      24.452   2.666  50.420  1.00  0.00    -0.338 N 
HETATM   11  H7  UNL     1      23.503   2.637  50.035  1.00  0.00     0.167 HD
BRANCH  10  12
HETATM   12  C6  UNL     1      25.511   3.437  49.896  1.00  0.00     0.046 A 
HETATM   13  C7  UNL     1      26.651   3.185  49.272  1.00  0.00     0.031 A 
HETATM   14  C8  UNL     1      26.856   4.628  49.243  1.00  0.00     0.018 A 
HETATM   15  C9  UNL     1      25.712   4.874  49.869  1.00  0.00     0.039 A 
BRANCH  15  16
HETATM   16  C10 UNL     1      24.982   6.082  50.327  1.00  0.00     0.269 C 
HETATM   17  C11 UNL     1      24.015   6.551  49.249  1.00  0.00     0.096 C 
HETATM   18  F1  UNL     1      24.296   5.786  51.480  1.00  0.00    -0.201 F 
HETATM   19  F2  UNL     1      25.855   7.138  50.589  1.00  0.00    -0.201 F 
ENDBRANCH  15  16
ENDBRANCH  10  12
ENDBRANCH   5  10
BRANCH   7  20
HETATM   20  N5  UNL     1      26.659  -0.117  53.739  1.00  0.00    -0.221 N 
HETATM   21  H13 UNL     1      26.826  -0.050  54.757  1.00  0.00     0.177 HD
BRANCH  20  22
HETATM   22  C13 UNL     1      27.630  -0.779  52.917  1.00  0.00     0.168 C 
BRANCH  22  23
HETATM   23  C14 UNL     1      27.234  -2.220  52.660  1.00  0.00     0.286 C 
BRANCH  23  24
HETATM   24  N6  UNL     1      28.358  -3.073  53.036  1.00  0.00     0.079 N 
HETATM   25  H18 UNL     1      28.837  -3.309  52.117  1.00  0.00     0.312 HD
HETATM   26  H19 UNL     1      28.017  -3.959  53.452  1.00  0.00     0.312 HD
ENDBRANCH  23  24
ENDBRANCH  22  23
ENDBRANCH  20  22
ENDBRANCH   7  20
BRANCH   1  27
HETATM   27  C2  UNL     1      21.408  -0.242  54.710  1.00  0.00     0.127 C 
HETATM   28  C1  UNL     1      21.194  -1.693  54.372  1.00  0.00     0.027 C 
ENDBRANCH   1  27
TORSDOF 8
ENDMDL
MODEL 6
REMARK VINA RESULT:      -7.0      2.404      5.255
REMARK  8 active torsions:
REMARK  status: ('A' for Active; 'I' for Inactive)
REMARK    1  A    between atoms: C2_2  and  N1_3 
REMARK    2  A    between atoms: C5_7  and  N3_8 
REMARK    3  A    between atoms: N3_8  and  C6_9 
REMARK    4  A    between atoms: C9_12  and  C10_13 
REMARK    5  A    between atoms: C12_18  and  N5_19 
REMARK    6  A    between atoms: N5_19  and  C13_20 
REMARK    7  A    between atoms: C13_20  and  C14_21 
REMARK    8  A    between atoms: C14_21  and  N6_22 
ROOT
HETATM    1  N1  UNL     1      28.351   0.586  53.839  1.00  0.00    -0.324 N 
HETATM    2  C3  UNL     1      28.813   1.770  53.349  1.00  0.00     0.212 A 
HETATM    3  N2  UNL     1      27.801   2.536  52.902  1.00  0.00    -0.236 NA
HETATM    4  C4  UNL     1      26.645   1.874  53.086  1.00  0.00     0.151 A 
HETATM    5  C5  UNL     1      25.303   2.124  52.839  1.00  0.00     0.180 A 
HETATM    6  N4  UNL     1      24.393   1.187  53.173  1.00  0.00    -0.043 NA
HETATM    7  C12 UNL     1      24.762   0.025  53.736  1.00  0.00     0.726 A 
HETATM    8  N7  UNL     1      26.062  -0.229  53.980  1.00  0.00    -0.042 NA
HETATM    9  C15 UNL     1      27.009   0.673  53.667  1.00  0.00     0.182 A 
ENDROOT
BRANCH   5  10
HETATM   10  N3  UNL     1      25.051   3.387  52.243  1.00  0.00    -0.338 N 
HETATM   11  H7  UNL     1      24.869   4.057  52.996  1.00  0.00     0.167 HD
BRANCH  10  12
HETATM   12  C6  UNL     1      25.045   3.698  50.867  1.00  0.00     0.046 A 
HETATM   13  C7  UNL     1      25.801   4.418  50.052  1.00  0.00     0.031 A 
HETATM   14  C8  UNL     1      24.887   4.020  48.989  1.00  0.00     0.018 A 
HETATM   15  C9  UNL     1      24.132   3.301  49.811  1.00  0.00     0.039 A 
BRANCH  15  16
HETATM   16  C10 UNL     1      22.909   2.470  49.688  1.00  0.00     0.269 C 
HETATM   17  C11 UNL     1      21.691   3.257  50.153  1.00  0.00     0.096 C 
HETATM   18  F1  UNL     1      22.752   2.086  48.379  1.00  0.00    -0.201 F 
HETATM   19  F2  UNL     1      22.989   1.324  50.480  1.00  0.00    -0.201 F 
ENDBRANCH  15  16
ENDBRANCH  10  12
ENDBRANCH   5  10
BRANCH   7  20
HETATM   20  N5  UNL     1      23.765  -0.930  54.069  1.00  0.00    -0.221 N 
HETATM   21  H13 UNL     1      24.007  -1.732  54.676  1.00  0.00     0.177 HD
BRANCH  20  22
HETATM   22  C13 UNL     1      22.422  -0.808  53.580  1.00  0.00     0.168 C 
BRANCH  22  23
HETATM   23  C14 UNL     1      21.415  -1.058  54.686  1.00  0.00     0.286 C 
BRANCH  23  24
HETATM   24  N6  UNL     1      20.620   0.155  54.857  1.00  0.00     0.079 N 
HETATM   25  H18 UNL     1      19.756  -0.002  54.259  1.00  0.00     0.312 HD
HETATM   26  H19 UNL     1      21.125   0.976  54.474  1.00  0.00     0.312 HD
ENDBRANCH  23  24
ENDBRANCH  22  23
ENDBRANCH  20  22
ENDBRANCH   7  20
BRANCH   1  27
HETATM   27  C2  UNL     1      29.080  -0.513  54.410  1.00  0.00     0.127 C 
HETATM   28  C1  UNL     1      29.545  -1.523  53.396  1.00  0.00     0.027 C 
ENDBRANCH   1  27
TORSDOF 8
ENDMDL
MODEL 7
REMARK VINA RESULT:      -7.0      3.255      6.563
REMARK  8 active torsions:
REMARK  status: ('A' for Active; 'I' for Inactive)
REMARK    1  A    between atoms: C2_2  and  N1_3 
REMARK    2  A    between atoms: C5_7  and  N3_8 
REMARK    3  A    between atoms: N3_8  and  C6_9 
REMARK    4  A    between atoms: C9_12  and  C10_13 
REMARK    5  A    between atoms: C12_18  and  N5_19 
REMARK    6  A    between atoms: N5_19  and  C13_20 
REMARK    7  A    between atoms: C13_20  and  C14_21 
REMARK    8  A    between atoms: C14_21  and  N6_22 
ROOT
HETATM    1  N1  UNL     1      21.636   0.186  53.304  1.00  0.00    -0.324 N 
HETATM    2  C3  UNL     1      21.012   1.310  52.853  1.00  0.00     0.212 A 
HETATM    3  N2  UNL     1      21.903   2.283  52.587  1.00  0.00    -0.236 NA
HETATM    4  C4  UNL     1      23.137   1.823  52.856  1.00  0.00     0.151 A 
HETATM    5  C5  UNL     1      24.427   2.331  52.789  1.00  0.00     0.180 A 
HETATM    6  N4  UNL     1      25.458   1.543  53.157  1.00  0.00    -0.043 NA
HETATM    7  C12 UNL     1      25.257   0.285  53.582  1.00  0.00     0.726 A 
HETATM    8  N7  UNL     1      24.011  -0.219  53.651  1.00  0.00    -0.042 NA
HETATM    9  C15 UNL     1      22.948   0.525  53.297  1.00  0.00     0.182 A 
ENDROOT
BRANCH   5  10
HETATM   10  N3  UNL     1      24.497   3.669  52.323  1.00  0.00    -0.338 N 
HETATM   11  H7  UNL     1      24.667   4.273  53.134  1.00  0.00     0.167 HD
BRANCH  10  12
HETATM   12  C6  UNL     1      24.360   4.123  50.995  1.00  0.00     0.046 A 
HETATM   13  C7  UNL     1      23.406   4.701  50.282  1.00  0.00     0.031 A 
HETATM   14  C8  UNL     1      24.344   4.682  49.167  1.00  0.00     0.018 A 
HETATM   15  C9  UNL     1      25.296   4.102  49.886  1.00  0.00     0.039 A 
BRANCH  15  16
HETATM   16  C10 UNL     1      26.688   3.645  49.649  1.00  0.00     0.269 C 
HETATM   17  C11 UNL     1      27.451   4.685  48.840  1.00  0.00     0.096 C 
HETATM   18  F1  UNL     1      27.309   3.437  50.856  1.00  0.00    -0.201 F 
HETATM   19  F2  UNL     1      26.717   2.453  48.924  1.00  0.00    -0.201 F 
ENDBRANCH  15  16
ENDBRANCH  10  12
ENDBRANCH   5  10
BRANCH   7  20
HETATM   20  N5  UNL     1      26.377  -0.505  53.957  1.00  0.00    -0.221 N 
HETATM   21  H13 UNL     1      26.488  -0.799  54.942  1.00  0.00     0.177 HD
BRANCH  20  22
HETATM   22  C13 UNL     1      27.362  -0.907  52.995  1.00  0.00     0.168 C 
BRANCH  22  23
HETATM   23  C14 UNL     1      27.159  -2.351  52.579  1.00  0.00     0.286 C 
BRANCH  23  24
HETATM   24  N6  UNL     1      28.323  -3.116  53.016  1.00  0.00     0.079 N 
HETATM   25  H18 UNL     1      27.921  -4.003  53.440  1.00  0.00     0.312 HD
HETATM   26  H19 UNL     1      28.830  -2.609  53.765  1.00  0.00     0.312 HD
ENDBRANCH  23  24
ENDBRANCH  22  23
ENDBRANCH  20  22
ENDBRANCH   7  20
BRANCH   1  27
HETATM   27  C2  UNL     1      21.072  -1.076  53.699  1.00  0.00     0.127 C 
HETATM   28  C1  UNL     1      19.570  -1.121  53.610  1.00  0.00     0.027 C 
ENDBRANCH   1  27
TORSDOF 8
ENDMDL
MODEL 8
REMARK VINA RESULT:      -6.7      2.062      2.799
REMARK  8 active torsions:
REMARK  status: ('A' for Active; 'I' for Inactive)
REMARK    1  A    between atoms: C2_2  and  N1_3 
REMARK    2  A    between atoms: C5_7  and  N3_8 
REMARK    3  A    between atoms: N3_8  and  C6_9 
REMARK    4  A    between atoms: C9_12  and  C10_13 
REMARK    5  A    between atoms: C12_18  and  N5_19 
REMARK    6  A    between atoms: N5_19  and  C13_20 
REMARK    7  A    between atoms: C13_20  and  C14_21 
REMARK    8  A    between atoms: C14_21  and  N6_22 
ROOT
HETATM    1  N1  UNL     1      26.946   0.274  54.147  1.00  0.00    -0.324 N 
HETATM    2  C3  UNL     1      25.915  -0.508  54.572  1.00  0.00     0.212 A 
HETATM    3  N2  UNL     1      24.797  -0.259  53.865  1.00  0.00    -0.236 NA
HETATM    4  C4  UNL     1      25.065   0.693  52.956  1.00  0.00     0.151 A 
HETATM    5  C5  UNL     1      24.352   1.357  51.967  1.00  0.00     0.180 A 
HETATM    6  N4  UNL     1      24.981   2.289  51.223  1.00  0.00    -0.043 NA
HETATM    7  C12 UNL     1      26.276   2.582  51.422  1.00  0.00     0.726 A 
HETATM    8  N7  UNL     1      26.979   1.945  52.377  1.00  0.00    -0.042 NA
HETATM    9  C15 UNL     1      26.398   1.007  53.147  1.00  0.00     0.182 A 
ENDROOT
BRANCH   5  10
HETATM   10  N3  UNL     1      22.996   0.952  51.863  1.00  0.00    -0.338 N 
HETATM   11  H7  UNL     1      22.815   0.273  52.609  1.00  0.00     0.167 HD
BRANCH  10  12
HETATM   12  C6  UNL     1      22.042   1.384  50.919  1.00  0.00     0.046 A 
HETATM   13  C7  UNL     1      21.523   0.898  49.801  1.00  0.00     0.031 A 
HETATM   14  C8  UNL     1      20.730   2.119  49.737  1.00  0.00     0.018 A 
HETATM   15  C9  UNL     1      21.254   2.601  50.857  1.00  0.00     0.039 A 
BRANCH  15  16
HETATM   16  C10 UNL     1      21.095   3.833  51.668  1.00  0.00     0.269 C 
HETATM   17  C11 UNL     1      20.615   4.981  50.791  1.00  0.00     0.096 C 
HETATM   18  F1  UNL     1      20.190   3.599  52.675  1.00  0.00    -0.201 F 
HETATM   19  F2  UNL     1      22.304   4.228  52.242  1.00  0.00    -0.201 F 
ENDBRANCH  15  16
ENDBRANCH  10  12
ENDBRANCH   5  10
BRANCH   7  20
HETATM   20  N5  UNL     1      26.894   3.572  50.611  1.00  0.00    -0.221 N 
HETATM   21  H13 UNL     1      27.918   3.706  50.658  1.00  0.00     0.177 HD
BRANCH  20  22
HETATM   22  C13 UNL     1      26.125   4.395  49.723  1.00  0.00     0.168 C 
BRANCH  22  23
HETATM   23  C14 UNL     1      27.027   5.182  48.792  1.00  0.00     0.286 C 
BRANCH  23  24
HETATM   24  N6  UNL     1      27.161   6.534  49.327  1.00  0.00     0.079 N 
HETATM   25  H18 UNL     1      26.170   6.916  49.347  1.00  0.00     0.312 HD
HETATM   26  H19 UNL     1      27.716   7.125  48.682  1.00  0.00     0.312 HD
ENDBRANCH  23  24
ENDBRANCH  22  23
ENDBRANCH  20  22
ENDBRANCH   7  20
BRANCH   1  27
HETATM   27  C2  UNL     1      28.302   0.332  54.618  1.00  0.00     0.127 C 
HETATM   28  C1  UNL     1      29.286  -0.374  53.724  1.00  0.00     0.027 C 
ENDBRANCH   1  27
TORSDOF 8
ENDMDL
MODEL 9
REMARK VINA RESULT:      -6.7      1.830      4.710
REMARK  8 active torsions:
REMARK  status: ('A' for Active; 'I' for Inactive)
REMARK    1  A    between atoms: C2_2  and  N1_3 
REMARK    2  A    between atoms: C5_7  and  N3_8 
REMARK    3  A    between atoms: N3_8  and  C6_9 
REMARK    4  A    between atoms: C9_12  and  C10_13 
REMARK    5  A    between atoms: C12_18  and  N5_19 
REMARK    6  A    between atoms: N5_19  and  C13_20 
REMARK    7  A    between atoms: C13_20  and  C14_21 
REMARK    8  A    between atoms: C14_21  and  N6_22 
ROOT
HETATM    1  N1  UNL     1      26.060   4.085  49.754  1.00  0.00    -0.324 N 
HETATM    2  C3  UNL     1      24.814   4.635  49.709  1.00  0.00     0.212 A 
HETATM    3  N2  UNL     1      23.993   4.045  50.597  1.00  0.00    -0.236 NA
HETATM    4  C4  UNL     1      24.678   3.091  51.250  1.00  0.00     0.151 A 
HETATM    5  C5  UNL     1      24.398   2.169  52.249  1.00  0.00     0.180 A 
HETATM    6  N4  UNL     1      25.378   1.342  52.666  1.00  0.00    -0.043 NA
HETATM    7  C12 UNL     1      26.610   1.396  52.135  1.00  0.00     0.726 A 
HETATM    8  N7  UNL     1      26.894   2.287  51.166  1.00  0.00    -0.042 NA
HETATM    9  C15 UNL     1      25.953   3.135  50.714  1.00  0.00     0.182 A 
ENDROOT
BRANCH   5  10
HETATM   10  N3  UNL     1      23.061   2.218  52.721  1.00  0.00    -0.338 N 
HETATM   11  H7  UNL     1      22.831   3.200  52.906  1.00  0.00     0.167 HD
BRANCH  10  12
HETATM   12  C6  UNL     1      22.180   1.134  52.914  1.00  0.00     0.046 A 
HETATM   13  C7  UNL     1      21.942   0.264  53.884  1.00  0.00     0.031 A 
HETATM   14  C8  UNL     1      20.922  -0.302  53.010  1.00  0.00     0.018 A 
HETATM   15  C9  UNL     1      21.166   0.572  52.042  1.00  0.00     0.039 A 
BRANCH  15  16
HETATM   16  C10 UNL     1      20.631   0.841  50.684  1.00  0.00     0.269 C 
HETATM   17  C11 UNL     1      20.430   2.337  50.486  1.00  0.00     0.096 C 
HETATM   18  F1  UNL     1      21.508   0.354  49.747  1.00  0.00    -0.201 F 
HETATM   19  F2  UNL     1      19.392   0.228  50.493  1.00  0.00    -0.201 F 
ENDBRANCH  15  16
ENDBRANCH  10  12
ENDBRANCH   5  10
BRANCH   7  20
HETATM   20  N5  UNL     1      27.608   0.503  52.609  1.00  0.00    -0.221 N 
HETATM   21  H13 UNL     1      28.146  -0.067  51.935  1.00  0.00     0.177 HD
BRANCH  20  22
HETATM   22  C13 UNL     1      27.889   0.374  54.010  1.00  0.00     0.168 C 
BRANCH  22  23
HETATM   23  C14 UNL     1      29.322   0.765  54.316  1.00  0.00     0.286 C 
BRANCH  23  24
HETATM   24  N6  UNL     1      29.389   2.221  54.385  1.00  0.00     0.079 N 
HETATM   25  H18 UNL     1      29.890   2.426  55.299  1.00  0.00     0.312 HD
HETATM   26  H19 UNL     1      28.436   2.625  54.449  1.00  0.00     0.312 HD
ENDBRANCH  23  24
ENDBRANCH  22  23
ENDBRANCH  20  22
ENDBRANCH   7  20
BRANCH   1  27
HETATM   27  C2  UNL     1      27.230   4.411  48.987  1.00  0.00     0.127 C 
HETATM   28  C1  UNL     1      27.282   5.849  48.542  1.00  0.00     0.027 C 
ENDBRANCH   1  27
TORSDOF 8
ENDMDL
