MODEL 1
REMARK VINA RESULT:      -8.2      0.000      0.000
REMARK  5 active torsions:
REMARK  status: ('A' for Active; 'I' for Inactive)
REMARK    1  A    between atoms: O1_2  and  C2_3 
REMARK    2  A    between atoms: C5_6  and  C6_7 
REMARK    3  A    between atoms: N2_9  and  C7_10 
REMARK    4  A    between atoms: C10_15  and  C11_16 
REMARK    5  A    between atoms: C14_19  and  O2_20 
ROOT
HETATM    1  C6  UNL     1      21.930   0.651  52.320  1.00  0.00     0.067 C 
HETATM    2  N1  UNL     1      22.436   1.681  51.775  1.00  0.00    -0.173 NA
HETATM    3  N2  UNL     1      23.803   1.799  52.055  1.00  0.00    -0.236 N 
HETATM    4  C10 UNL     1      24.008   1.033  53.247  1.00  0.00     0.151 C 
HETATM    5  C18 UNL     1      22.988  -0.074  53.072  1.00  0.00     0.094 C 
ENDROOT
BRANCH   1   6
HETATM    6  C5  UNL     1      20.519   0.217  52.235  1.00  0.00    -0.010 A 
HETATM    7  C4  UNL     1      19.747   0.546  51.126  1.00  0.00     0.016 A 
HETATM    8  C3  UNL     1      18.429   0.150  51.028  1.00  0.00     0.037 A 
HETATM    9  C2  UNL     1      17.909  -0.588  52.082  1.00  0.00     0.068 A 
HETATM   10  C20 UNL     1      18.645  -0.934  53.200  1.00  0.00     0.037 A 
HETATM   11  C19 UNL     1      19.977  -0.518  53.271  1.00  0.00     0.016 A 
BRANCH   9  12
HETATM   12  O1  UNL     1      16.578  -1.046  52.093  1.00  0.00    -0.356 OA
HETATM   13  C1  UNL     1      15.536  -0.220  52.597  1.00  0.00     0.210 C 
ENDBRANCH   9  12
ENDBRANCH   1   6
BRANCH   3  14
HETATM   14  C7  UNL     1      24.656   2.563  51.215  1.00  0.00     0.189 A 
HETATM   15  N3  UNL     1      25.982   2.502  50.872  1.00  0.00    -0.235 NA
HETATM   16  C8  UNL     1      26.298   3.487  50.018  1.00  0.00     0.127 A 
HETATM   17  C9  UNL     1      25.452   4.561  49.439  1.00  0.00     0.072 A 
HETATM   18  S1  UNL     1      23.857   4.004  50.338  1.00  0.00    -0.061 SA
ENDBRANCH   3  14
BRANCH   4  19
HETATM   19  C11 UNL     1      25.330   0.387  53.360  1.00  0.00    -0.033 A 
HETATM   20  C12 UNL     1      25.610  -0.808  52.706  1.00  0.00     0.012 A 
HETATM   21  C13 UNL     1      26.793  -1.501  52.732  1.00  0.00     0.037 A 
HETATM   22  C14 UNL     1      27.808  -0.953  53.489  1.00  0.00     0.068 A 
HETATM   23  C16 UNL     1      27.611   0.232  54.169  1.00  0.00     0.037 A 
HETATM   24  C17 UNL     1      26.391   0.876  54.096  1.00  0.00     0.012 A 
BRANCH  22  25
HETATM   25  O2  UNL     1      29.029  -1.603  53.558  1.00  0.00    -0.356 OA
HETATM   26  C15 UNL     1      30.201  -0.862  53.829  1.00  0.00     0.210 C 
ENDBRANCH  22  25
ENDBRANCH   4  19
TORSDOF 5
ENDMDL
MODEL 2
REMARK VINA RESULT:      -7.9      2.832      4.930
REMARK  5 active torsions:
REMARK  status: ('A' for Active; 'I' for Inactive)
REMARK    1  A    between atoms: O1_2  and  C2_3 
REMARK    2  A    between atoms: C5_6  and  C6_7 
REMARK    3  A    between atoms: N2_9  and  C7_10 
REMARK    4  A    between atoms: C10_15  and  C11_16 
REMARK    5  A    between atoms: C14_19  and  O2_20 
ROOT
HETATM    1  C6  UNL     1      23.168   1.159  51.934  1.00  0.00     0.067 C 
HETATM    2  N1  UNL     1      24.286   0.807  52.422  1.00  0.00    -0.173 NA
HETATM    3  N2  UNL     1      25.349   1.528  51.862  1.00  0.00    -0.236 N 
HETATM    4  C10 UNL     1      24.854   2.007  50.607  1.00  0.00     0.151 C 
HETATM    5  C18 UNL     1      23.389   2.229  50.926  1.00  0.00     0.094 C 
ENDROOT
BRANCH   1   6
HETATM    6  C5  UNL     1      21.842   0.611  52.292  1.00  0.00    -0.010 A 
HETATM    7  C4  UNL     1      21.634   0.033  53.541  1.00  0.00     0.016 A 
HETATM    8  C3  UNL     1      20.405  -0.483  53.895  1.00  0.00     0.037 A 
HETATM    9  C2  UNL     1      19.388  -0.402  52.953  1.00  0.00     0.068 A 
HETATM   10  C20 UNL     1      19.557   0.164  51.704  1.00  0.00     0.037 A 
HETATM   11  C19 UNL     1      20.814   0.679  51.374  1.00  0.00     0.016 A 
BRANCH   9  12
HETATM   12  O1  UNL     1      18.093  -0.895  53.202  1.00  0.00    -0.356 OA
HETATM   13  C1  UNL     1      17.901  -2.251  53.586  1.00  0.00     0.210 C 
ENDBRANCH   9  12
ENDBRANCH   1   6
BRANCH   3  14
HETATM   14  C7  UNL     1      26.587   1.652  52.547  1.00  0.00     0.189 A 
HETATM   15  N3  UNL     1      27.662   2.498  52.454  1.00  0.00    -0.235 NA
HETATM   16  C8  UNL     1      28.599   2.177  53.358  1.00  0.00     0.127 A 
HETATM   17  C9  UNL     1      28.617   1.095  54.375  1.00  0.00     0.072 A 
HETATM   18  S1  UNL     1      26.895   0.408  53.903  1.00  0.00    -0.061 SA
ENDBRANCH   3  14
BRANCH   4  19
HETATM   19  C11 UNL     1      25.401   3.306  50.170  1.00  0.00    -0.033 A 
HETATM   20  C12 UNL     1      26.557   3.382  49.400  1.00  0.00     0.012 A 
HETATM   21  C13 UNL     1      27.160   4.523  48.933  1.00  0.00     0.037 A 
HETATM   22  C14 UNL     1      26.554   5.716  49.267  1.00  0.00     0.068 A 
HETATM   23  C16 UNL     1      25.403   5.727  50.029  1.00  0.00     0.037 A 
HETATM   24  C17 UNL     1      24.851   4.538  50.463  1.00  0.00     0.012 A 
BRANCH  22  25
HETATM   25  O2  UNL     1      27.112   6.905  48.828  1.00  0.00    -0.356 OA
HETATM   26  C15 UNL     1      28.162   6.877  47.882  1.00  0.00     0.210 C 
ENDBRANCH  22  25
ENDBRANCH   4  19
TORSDOF 5
ENDMDL
MODEL 3
REMARK VINA RESULT:      -7.7      3.491      5.627
REMARK  5 active torsions:
REMARK  status: ('A' for Active; 'I' for Inactive)
REMARK    1  A    between atoms: O1_2  and  C2_3 
REMARK    2  A    between atoms: C5_6  and  C6_7 
REMARK    3  A    between atoms: N2_9  and  C7_10 
REMARK    4  A    between atoms: C10_15  and  C11_16 
REMARK    5  A    between atoms: C14_19  and  O2_20 
ROOT
HETATM    1  C6  UNL     1      23.245   3.420  51.695  1.00  0.00     0.067 C 
HETATM    2  N1  UNL     1      22.495   2.451  52.031  1.00  0.00    -0.173 NA
HETATM    3  N2  UNL     1      23.236   1.309  52.361  1.00  0.00    -0.236 N 
HETATM    4  C10 UNL     1      24.499   1.483  51.710  1.00  0.00     0.151 C 
HETATM    5  C18 UNL     1      24.666   2.988  51.774  1.00  0.00     0.094 C 
ENDROOT
BRANCH   1   6
HETATM    6  C5  UNL     1      22.804   4.771  51.288  1.00  0.00    -0.010 A 
HETATM    7  C4  UNL     1      23.717   5.818  51.218  1.00  0.00     0.016 A 
HETATM    8  C3  UNL     1      23.325   7.085  50.839  1.00  0.00     0.037 A 
HETATM    9  C2  UNL     1      21.984   7.269  50.532  1.00  0.00     0.068 A 
HETATM   10  C20 UNL     1      21.048   6.254  50.590  1.00  0.00     0.037 A 
HETATM   11  C19 UNL     1      21.474   4.981  50.977  1.00  0.00     0.016 A 
BRANCH   9  12
HETATM   12  O1  UNL     1      21.469   8.517  50.134  1.00  0.00    -0.356 OA
HETATM   13  C1  UNL     1      20.096   8.653  49.789  1.00  0.00     0.210 C 
ENDBRANCH   9  12
ENDBRANCH   1   6
BRANCH   3  14
HETATM   14  C7  UNL     1      22.682   0.294  53.184  1.00  0.00     0.189 A 
HETATM   15  N3  UNL     1      23.174  -0.532  54.162  1.00  0.00    -0.235 NA
HETATM   16  C8  UNL     1      22.208  -1.332  54.638  1.00  0.00     0.127 A 
HETATM   17  C9  UNL     1      20.774  -1.430  54.264  1.00  0.00     0.072 A 
HETATM   18  S1  UNL     1      20.866  -0.056  52.936  1.00  0.00    -0.061 SA
ENDBRANCH   3  14
BRANCH   4  19
HETATM   19  C11 UNL     1      25.654   0.892  52.412  1.00  0.00    -0.033 A 
HETATM   20  C12 UNL     1      26.252   1.535  53.491  1.00  0.00     0.012 A 
HETATM   21  C13 UNL     1      27.325   1.089  54.221  1.00  0.00     0.037 A 
HETATM   22  C14 UNL     1      27.864  -0.123  53.842  1.00  0.00     0.068 A 
HETATM   23  C16 UNL     1      27.328  -0.825  52.780  1.00  0.00     0.037 A 
HETATM   24  C17 UNL     1      26.246  -0.314  52.091  1.00  0.00     0.012 A 
BRANCH  22  25
HETATM   25  O2  UNL     1      28.948  -0.630  54.538  1.00  0.00    -0.356 OA
HETATM   26  C15 UNL     1      30.101  -1.042  53.832  1.00  0.00     0.210 C 
ENDBRANCH  22  25
ENDBRANCH   4  19
TORSDOF 5
ENDMDL
MODEL 4
REMARK VINA RESULT:      -7.6      3.234      8.186
REMARK  5 active torsions:
REMARK  status: ('A' for Active; 'I' for Inactive)
REMARK    1  A    between atoms: O1_2  and  C2_3 
REMARK    2  A    between atoms: C5_6  and  C6_7 
REMARK    3  A    between atoms: N2_9  and  C7_10 
REMARK    4  A    between atoms: C10_15  and  C11_16 
REMARK    5  A    between atoms: C14_19  and  O2_20 
ROOT
HETATM    1  C6  UNL     1      24.001   0.959  52.381  1.00  0.00     0.067 C 
HETATM    2  N1  UNL     1      22.842   0.610  52.767  1.00  0.00    -0.173 NA
HETATM    3  N2  UNL     1      21.836   1.194  51.987  1.00  0.00    -0.236 N 
HETATM    4  C10 UNL     1      22.443   2.349  51.398  1.00  0.00     0.151 C 
HETATM    5  C18 UNL     1      23.873   1.879  51.219  1.00  0.00     0.094 C 
ENDROOT
BRANCH   1   6
HETATM    6  C5  UNL     1      25.288   0.535  52.972  1.00  0.00    -0.010 A 
HETATM    7  C4  UNL     1      25.482   0.590  54.349  1.00  0.00     0.016 A 
HETATM    8  C3  UNL     1      26.674   0.197  54.920  1.00  0.00     0.037 A 
HETATM    9  C2  UNL     1      27.669  -0.253  54.063  1.00  0.00     0.068 A 
HETATM   10  C20 UNL     1      27.514  -0.323  52.692  1.00  0.00     0.037 A 
HETATM   11  C19 UNL     1      26.295   0.082  52.142  1.00  0.00     0.016 A 
BRANCH   9  12
HETATM   12  O1  UNL     1      28.927  -0.679  54.532  1.00  0.00    -0.356 OA
HETATM   13  C1  UNL     1      29.993  -0.914  53.620  1.00  0.00     0.210 C 
ENDBRANCH   9  12
ENDBRANCH   1   6
BRANCH   3  14
HETATM   14  C7  UNL     1      20.541   0.617  51.917  1.00  0.00     0.189 A 
HETATM   15  N3  UNL     1      19.554   0.570  50.966  1.00  0.00    -0.235 NA
HETATM   16  C8  UNL     1      18.496  -0.122  51.412  1.00  0.00     0.127 A 
HETATM   17  C9  UNL     1      18.274  -0.797  52.717  1.00  0.00     0.072 A 
HETATM   18  S1  UNL     1      19.979  -0.311  53.435  1.00  0.00    -0.061 SA
ENDBRANCH   3  14
BRANCH   4  19
HETATM   19  C11 UNL     1      21.939   2.710  50.059  1.00  0.00    -0.033 A 
HETATM   20  C12 UNL     1      22.391   2.061  48.915  1.00  0.00     0.012 A 
HETATM   21  C13 UNL     1      22.000   2.305  47.623  1.00  0.00     0.037 A 
HETATM   22  C14 UNL     1      21.061   3.300  47.444  1.00  0.00     0.068 A 
HETATM   23  C16 UNL     1      20.561   3.993  48.529  1.00  0.00     0.037 A 
HETATM   24  C17 UNL     1      21.002   3.692  49.803  1.00  0.00     0.012 A 
BRANCH  22  25
HETATM   25  O2  UNL     1      20.624   3.596  46.164  1.00  0.00    -0.356 OA
HETATM   26  C15 UNL     1      21.565   3.927  45.163  1.00  0.00     0.210 C 
ENDBRANCH  22  25
ENDBRANCH   4  19
TORSDOF 5
ENDMDL
MODEL 5
REMARK VINA RESULT:      -7.6      2.116      8.108
REMARK  5 active torsions:
REMARK  status: ('A' for Active; 'I' for Inactive)
REMARK    1  A    between atoms: O1_2  and  C2_3 
REMARK    2  A    between atoms: C5_6  and  C6_7 
REMARK    3  A    between atoms: N2_9  and  C7_10 
REMARK    4  A    between atoms: C10_15  and  C11_16 
REMARK    5  A    between atoms: C14_19  and  O2_20 
ROOT
HETATM    1  C6  UNL     1      22.587   1.019  52.629  1.00  0.00     0.067 C 
HETATM    2  N1  UNL     1      22.118   1.990  51.957  1.00  0.00    -0.173 NA
HETATM    3  N2  UNL     1      20.807   1.744  51.530  1.00  0.00    -0.236 N 
HETATM    4  C10 UNL     1      20.669   0.319  51.553  1.00  0.00     0.151 C 
HETATM    5  C18 UNL     1      21.558  -0.050  52.724  1.00  0.00     0.094 C 
ENDROOT
BRANCH   1   6
HETATM    6  C5  UNL     1      23.934   0.938  53.232  1.00  0.00    -0.010 A 
HETATM    7  C4  UNL     1      24.770   2.050  53.238  1.00  0.00     0.016 A 
HETATM    8  C3  UNL     1      26.030   1.995  53.796  1.00  0.00     0.037 A 
HETATM    9  C2  UNL     1      26.426   0.785  54.350  1.00  0.00     0.068 A 
HETATM   10  C20 UNL     1      25.624  -0.340  54.363  1.00  0.00     0.037 A 
HETATM   11  C19 UNL     1      24.353  -0.254  53.789  1.00  0.00     0.016 A 
BRANCH   9  12
HETATM   12  O1  UNL     1      27.689   0.610  54.947  1.00  0.00    -0.356 OA
HETATM   13  C1  UNL     1      28.875   0.913  54.224  1.00  0.00     0.210 C 
ENDBRANCH   9  12
ENDBRANCH   1   6
BRANCH   3  14
HETATM   14  C7  UNL     1      19.939   2.814  51.188  1.00  0.00     0.189 A 
HETATM   15  N3  UNL     1      18.969   3.521  51.851  1.00  0.00    -0.235 NA
HETATM   16  C8  UNL     1      18.433   4.456  51.053  1.00  0.00     0.127 A 
HETATM   17  C9  UNL     1      18.736   4.797  49.639  1.00  0.00     0.072 A 
HETATM   18  S1  UNL     1      20.094   3.463  49.445  1.00  0.00    -0.061 SA
ENDBRANCH   3  14
BRANCH   4  19
HETATM   19  C11 UNL     1      19.315  -0.175  51.868  1.00  0.00    -0.033 A 
HETATM   20  C12 UNL     1      18.269  -0.053  50.959  1.00  0.00     0.012 A 
HETATM   21  C13 UNL     1      16.975  -0.472  51.134  1.00  0.00     0.037 A 
HETATM   22  C14 UNL     1      16.684  -1.076  52.340  1.00  0.00     0.068 A 
HETATM   23  C16 UNL     1      17.666  -1.236  53.297  1.00  0.00     0.037 A 
HETATM   24  C17 UNL     1      18.950  -0.789  53.050  1.00  0.00     0.012 A 
BRANCH  22  25
HETATM   25  O2  UNL     1      15.395  -1.522  52.580  1.00  0.00    -0.356 OA
HETATM   26  C15 UNL     1      15.052  -2.860  52.284  1.00  0.00     0.210 C 
ENDBRANCH  22  25
ENDBRANCH   4  19
TORSDOF 5
ENDMDL
MODEL 6
REMARK VINA RESULT:      -7.5      3.091      8.535
REMARK  5 active torsions:
REMARK  status: ('A' for Active; 'I' for Inactive)
REMARK    1  A    between atoms: O1_2  and  C2_3 
REMARK    2  A    between atoms: C5_6  and  C6_7 
REMARK    3  A    between atoms: N2_9  and  C7_10 
REMARK    4  A    between atoms: C10_15  and  C11_16 
REMARK    5  A    between atoms: C14_19  and  O2_20 
ROOT
HETATM    1  C6  UNL     1      25.321   3.876  50.285  1.00  0.00     0.067 C 
HETATM    2  N1  UNL     1      25.770   3.109  51.192  1.00  0.00    -0.173 NA
HETATM    3  N2  UNL     1      24.753   2.347  51.781  1.00  0.00    -0.236 N 
HETATM    4  C10 UNL     1      23.546   3.072  51.521  1.00  0.00     0.151 C 
HETATM    5  C18 UNL     1      23.850   3.688  50.170  1.00  0.00     0.094 C 
ENDROOT
BRANCH   1   6
HETATM    6  C5  UNL     1      26.110   4.815  49.459  1.00  0.00    -0.010 A 
HETATM    7  C4  UNL     1      25.563   6.028  49.054  1.00  0.00     0.016 A 
HETATM    8  C3  UNL     1      26.283   6.917  48.285  1.00  0.00     0.037 A 
HETATM    9  C2  UNL     1      27.575   6.549  47.933  1.00  0.00     0.068 A 
HETATM   10  C20 UNL     1      28.153   5.354  48.316  1.00  0.00     0.037 A 
HETATM   11  C19 UNL     1      27.398   4.473  49.095  1.00  0.00     0.016 A 
BRANCH   9  12
HETATM   12  O1  UNL     1      28.404   7.376  47.151  1.00  0.00    -0.356 OA
HETATM   13  C1  UNL     1      29.745   7.631  47.546  1.00  0.00     0.210 C 
ENDBRANCH   9  12
ENDBRANCH   1   6
BRANCH   3  14
HETATM   14  C7  UNL     1      25.047   1.133  52.454  1.00  0.00     0.189 A 
HETATM   15  N3  UNL     1      24.415   0.379  53.410  1.00  0.00    -0.235 NA
HETATM   16  C8  UNL     1      25.137  -0.710  53.711  1.00  0.00     0.127 A 
HETATM   17  C9  UNL     1      26.445  -1.170  53.178  1.00  0.00     0.072 A 
HETATM   18  S1  UNL     1      26.654   0.309  51.982  1.00  0.00    -0.061 SA
ENDBRANCH   3  14
BRANCH   4  19
HETATM   19  C11 UNL     1      22.338   2.243  51.353  1.00  0.00    -0.033 A 
HETATM   20  C12 UNL     1      21.378   2.150  52.355  1.00  0.00     0.012 A 
HETATM   21  C13 UNL     1      20.219   1.417  52.318  1.00  0.00     0.037 A 
HETATM   22  C14 UNL     1      19.986   0.697  51.164  1.00  0.00     0.068 A 
HETATM   23  C16 UNL     1      20.890   0.735  50.122  1.00  0.00     0.037 A 
HETATM   24  C17 UNL     1      22.037   1.497  50.230  1.00  0.00     0.012 A 
BRANCH  22  25
HETATM   25  O2  UNL     1      18.834  -0.065  51.062  1.00  0.00    -0.356 OA
HETATM   26  C15 UNL     1      18.177  -0.500  52.235  1.00  0.00     0.210 C 
ENDBRANCH  22  25
ENDBRANCH   4  19
TORSDOF 5
ENDMDL
MODEL 7
REMARK VINA RESULT:      -7.5      1.914      7.839
REMARK  5 active torsions:
REMARK  status: ('A' for Active; 'I' for Inactive)
REMARK    1  A    between atoms: O1_2  and  C2_3 
REMARK    2  A    between atoms: C5_6  and  C6_7 
REMARK    3  A    between atoms: N2_9  and  C7_10 
REMARK    4  A    between atoms: C10_15  and  C11_16 
REMARK    5  A    between atoms: C14_19  and  O2_20 
ROOT
HETATM    1  C6  UNL     1      24.150   1.185  52.052  1.00  0.00     0.067 C 
HETATM    2  N1  UNL     1      23.718   2.167  51.371  1.00  0.00    -0.173 NA
HETATM    3  N2  UNL     1      22.356   2.034  51.073  1.00  0.00    -0.236 N 
HETATM    4  C10 UNL     1      22.084   0.633  51.185  1.00  0.00     0.151 C 
HETATM    5  C18 UNL     1      23.037   0.230  52.293  1.00  0.00     0.094 C 
ENDROOT
BRANCH   1   6
HETATM    6  C5  UNL     1      25.532   0.998  52.541  1.00  0.00    -0.010 A 
HETATM    7  C4  UNL     1      26.195   2.032  53.194  1.00  0.00     0.016 A 
HETATM    8  C3  UNL     1      27.484   1.876  53.658  1.00  0.00     0.037 A 
HETATM    9  C2  UNL     1      28.090   0.646  53.445  1.00  0.00     0.068 A 
HETATM   10  C20 UNL     1      27.465  -0.405  52.800  1.00  0.00     0.037 A 
HETATM   11  C19 UNL     1      26.159  -0.217  52.341  1.00  0.00     0.016 A 
BRANCH   9  12
HETATM   12  O1  UNL     1      29.403   0.371  53.874  1.00  0.00    -0.356 OA
HETATM   13  C1  UNL     1      29.963  -0.923  53.693  1.00  0.00     0.210 C 
ENDBRANCH   9  12
ENDBRANCH   1   6
BRANCH   3  14
HETATM   14  C7  UNL     1      21.566   3.169  50.749  1.00  0.00     0.189 A 
HETATM   15  N3  UNL     1      20.949   4.155  51.474  1.00  0.00    -0.235 NA
HETATM   16  C8  UNL     1      20.313   5.013  50.664  1.00  0.00     0.127 A 
HETATM   17  C9  UNL     1      20.200   5.029  49.183  1.00  0.00     0.072 A 
HETATM   18  S1  UNL     1      21.251   3.450  48.931  1.00  0.00    -0.061 SA
ENDBRANCH   3  14
BRANCH   4  19
HETATM   19  C11 UNL     1      20.723   0.291  51.641  1.00  0.00    -0.033 A 
HETATM   20  C12 UNL     1      20.504  -0.310  52.877  1.00  0.00     0.012 A 
HETATM   21  C13 UNL     1      19.293  -0.673  53.410  1.00  0.00     0.037 A 
HETATM   22  C14 UNL     1      18.180  -0.415  52.636  1.00  0.00     0.068 A 
HETATM   23  C16 UNL     1      18.313   0.179  51.397  1.00  0.00     0.037 A 
HETATM   24  C17 UNL     1      19.565   0.518  50.924  1.00  0.00     0.012 A 
BRANCH  22  25
HETATM   25  O2  UNL     1      16.927  -0.757  53.116  1.00  0.00    -0.356 OA
HETATM   26  C15 UNL     1      16.339  -1.981  52.723  1.00  0.00     0.210 C 
ENDBRANCH  22  25
ENDBRANCH   4  19
TORSDOF 5
ENDMDL
MODEL 8
REMARK VINA RESULT:      -7.3      3.460      7.895
REMARK  5 active torsions:
REMARK  status: ('A' for Active; 'I' for Inactive)
REMARK    1  A    between atoms: O1_2  and  C2_3 
REMARK    2  A    between atoms: C5_6  and  C6_7 
REMARK    3  A    between atoms: N2_9  and  C7_10 
REMARK    4  A    between atoms: C10_15  and  C11_16 
REMARK    5  A    between atoms: C14_19  and  O2_20 
ROOT
HETATM    1  C6  UNL     1      26.015   4.244  49.621  1.00  0.00     0.067 C 
HETATM    2  N1  UNL     1      24.771   3.990  49.581  1.00  0.00    -0.173 NA
HETATM    3  N2  UNL     1      24.437   2.897  50.390  1.00  0.00    -0.236 N 
HETATM    4  C10 UNL     1      25.655   2.160  50.544  1.00  0.00     0.151 C 
HETATM    5  C18 UNL     1      26.683   3.274  50.528  1.00  0.00     0.094 C 
ENDROOT
BRANCH   1   6
HETATM    6  C5  UNL     1      26.714   5.325  48.894  1.00  0.00    -0.010 A 
HETATM    7  C4  UNL     1      28.059   5.197  48.565  1.00  0.00     0.016 A 
HETATM    8  C3  UNL     1      28.728   6.193  47.885  1.00  0.00     0.037 A 
HETATM    9  C2  UNL     1      28.003   7.328  47.547  1.00  0.00     0.068 A 
HETATM   10  C20 UNL     1      26.666   7.491  47.857  1.00  0.00     0.037 A 
HETATM   11  C19 UNL     1      26.015   6.464  48.546  1.00  0.00     0.016 A 
BRANCH   9  12
HETATM   12  O1  UNL     1      28.579   8.409  46.854  1.00  0.00    -0.356 OA
HETATM   13  C1  UNL     1      29.298   8.189  45.647  1.00  0.00     0.210 C 
ENDBRANCH   9  12
ENDBRANCH   1   6
BRANCH   3  14
HETATM   14  C7  UNL     1      23.111   2.720  50.866  1.00  0.00     0.189 A 
HETATM   15  N3  UNL     1      22.153   1.749  50.722  1.00  0.00    -0.235 NA
HETATM   16  C8  UNL     1      21.041   2.075  51.395  1.00  0.00     0.127 A 
HETATM   17  C9  UNL     1      20.736   3.272  52.219  1.00  0.00     0.072 A 
HETATM   18  S1  UNL     1      22.444   4.088  51.946  1.00  0.00    -0.061 SA
ENDBRANCH   3  14
BRANCH   4  19
HETATM   19  C11 UNL     1      25.804   1.455  51.831  1.00  0.00    -0.033 A 
HETATM   20  C12 UNL     1      26.109   2.141  53.002  1.00  0.00     0.012 A 
HETATM   21  C13 UNL     1      26.272   1.601  54.253  1.00  0.00     0.037 A 
HETATM   22  C14 UNL     1      26.118   0.234  54.355  1.00  0.00     0.068 A 
HETATM   23  C16 UNL     1      25.815  -0.520  53.239  1.00  0.00     0.037 A 
HETATM   24  C17 UNL     1      25.665   0.093  52.011  1.00  0.00     0.012 A 
BRANCH  22  25
HETATM   25  O2  UNL     1      26.270  -0.375  55.589  1.00  0.00    -0.356 OA
HETATM   26  C15 UNL     1      25.162  -1.008  56.197  1.00  0.00     0.210 C 
ENDBRANCH  22  25
ENDBRANCH   4  19
TORSDOF 5
ENDMDL
MODEL 9
REMARK VINA RESULT:      -7.3      3.885      8.595
REMARK  5 active torsions:
REMARK  status: ('A' for Active; 'I' for Inactive)
REMARK    1  A    between atoms: O1_2  and  C2_3 
REMARK    2  A    between atoms: C5_6  and  C6_7 
REMARK    3  A    between atoms: N2_9  and  C7_10 
REMARK    4  A    between atoms: C10_15  and  C11_16 
REMARK    5  A    between atoms: C14_19  and  O2_20 
ROOT
HETATM    1  C6  UNL     1      25.414   4.788  49.168  1.00  0.00     0.067 C 
HETATM    2  N1  UNL     1      24.225   5.087  48.837  1.00  0.00    -0.173 NA
HETATM    3  N2  UNL     1      23.298   4.166  49.341  1.00  0.00    -0.236 N 
HETATM    4  C10 UNL     1      24.051   2.975  49.589  1.00  0.00     0.151 C 
HETATM    5  C18 UNL     1      25.397   3.548  49.987  1.00  0.00     0.094 C 
ENDROOT
BRANCH   1   6
HETATM    6  C5  UNL     1      26.638   5.537  48.811  1.00  0.00    -0.010 A 
HETATM    7  C4  UNL     1      26.606   6.923  48.692  1.00  0.00     0.016 A 
HETATM    8  C3  UNL     1      27.738   7.639  48.361  1.00  0.00     0.037 A 
HETATM    9  C2  UNL     1      28.906   6.919  48.152  1.00  0.00     0.068 A 
HETATM   10  C20 UNL     1      28.976   5.543  48.261  1.00  0.00     0.037 A 
HETATM   11  C19 UNL     1      27.814   4.844  48.597  1.00  0.00     0.016 A 
BRANCH   9  12
HETATM   12  O1  UNL     1      30.121   7.542  47.809  1.00  0.00    -0.356 OA
HETATM   13  C1  UNL     1      31.212   7.541  48.721  1.00  0.00     0.210 C 
ENDBRANCH   9  12
ENDBRANCH   1   6
BRANCH   3  14
HETATM   14  C7  UNL     1      21.933   4.522  49.505  1.00  0.00     0.189 A 
HETATM   15  N3  UNL     1      21.167   4.959  50.556  1.00  0.00    -0.235 NA
HETATM   16  C8  UNL     1      19.898   5.156  50.169  1.00  0.00     0.127 A 
HETATM   17  C9  UNL     1      19.262   4.971  48.840  1.00  0.00     0.072 A 
HETATM   18  S1  UNL     1      20.867   4.387  47.979  1.00  0.00    -0.061 SA
ENDBRANCH   3  14
BRANCH   4  19
HETATM   19  C11 UNL     1      23.580   2.157  50.723  1.00  0.00    -0.033 A 
HETATM   20  C12 UNL     1      24.315   2.057  51.899  1.00  0.00     0.012 A 
HETATM   21  C13 UNL     1      23.984   1.334  53.016  1.00  0.00     0.037 A 
HETATM   22  C14 UNL     1      22.797   0.631  52.963  1.00  0.00     0.068 A 
HETATM   23  C16 UNL     1      22.009   0.677  51.830  1.00  0.00     0.037 A 
HETATM   24  C17 UNL     1      22.406   1.429  50.742  1.00  0.00     0.012 A 
BRANCH  22  25
HETATM   25  O2  UNL     1      22.404  -0.120  54.057  1.00  0.00    -0.356 OA
HETATM   26  C15 UNL     1      21.039  -0.164  54.421  1.00  0.00     0.210 C 
ENDBRANCH  22  25
ENDBRANCH   4  19
TORSDOF 5
ENDMDL
