MODEL 1
REMARK VINA RESULT:      -7.0      0.000      0.000
REMARK  0 active torsions:
REMARK  status: ('A' for Active; 'I' for Inactive)
ROOT
HETATM    1  N1  UNL     1      21.525  -1.869  54.439  1.00  0.00    -0.191 NA
HETATM    2  C1  UNL     1      22.264  -1.158  53.887  1.00  0.00     0.103 C 
HETATM    3  C2  UNL     1      23.174  -0.278  53.201  1.00  0.00     0.090 A 
HETATM    4  C3  UNL     1      24.513  -0.271  53.503  1.00  0.00     0.141 A 
HETATM    5  N2  UNL     1      25.342   0.572  52.835  1.00  0.00    -0.270 NA
HETATM    6  C4  UNL     1      24.915   1.416  51.878  1.00  0.00     0.136 A 
HETATM    7  C5  UNL     1      23.576   1.457  51.526  1.00  0.00     0.035 A 
HETATM    8  C6  UNL     1      22.701   0.591  52.207  1.00  0.00     0.072 A 
HETATM    9  N3  UNL     1      21.270   0.411  52.057  1.00  0.00    -0.353 N 
HETATM   10  C7  UNL     1      20.446   0.841  50.943  1.00  0.00     0.046 C 
HETATM   11  C8  UNL     1      19.376   1.114  51.694  1.00  0.00     0.010 C 
HETATM   12  C9  UNL     1      19.407   2.396  52.045  1.00  0.00     0.061 C 
HETATM   13  S1  UNL     1      20.300   3.921  51.862  1.00  0.00    -0.118 SA
HETATM   14  C10 UNL     1      21.806   3.770  50.929  1.00  0.00     0.076 A 
HETATM   15  C11 UNL     1      22.273   4.916  50.464  1.00  0.00     0.025 A 
HETATM   16  C12 UNL     1      23.351   4.215  50.149  1.00  0.00     0.082 A 
HETATM   17  S2  UNL     1      23.086   2.562  50.295  1.00  0.00    -0.154 SA
HETATM   18  C13 UNL     1      22.026   1.588  49.242  1.00  0.00     0.061 C 
HETATM   19 CL1  UNL     1      22.594   1.645  47.595  1.00  0.00    -0.078 Cl
HETATM   20  C14 UNL     1      20.923   0.869  49.540  1.00  0.00     0.060 C 
HETATM   21  H3  UNL     1      20.741  -0.076  52.813  1.00  0.00     0.166 HD
ENDROOT
TORSDOF 0
ENDMDL
MODEL 2
REMARK VINA RESULT:      -6.9      1.660      2.171
REMARK  0 active torsions:
REMARK  status: ('A' for Active; 'I' for Inactive)
ROOT
HETATM    1  N1  UNL     1      25.180  -0.734  53.839  1.00  0.00    -0.191 NA
HETATM    2  C1  UNL     1      25.350   0.146  53.096  1.00  0.00     0.103 C 
HETATM    3  C2  UNL     1      25.557   1.232  52.174  1.00  0.00     0.090 A 
HETATM    4  C3  UNL     1      26.808   1.759  51.972  1.00  0.00     0.141 A 
HETATM    5  N2  UNL     1      26.966   2.784  51.095  1.00  0.00    -0.270 NA
HETATM    6  C4  UNL     1      25.945   3.320  50.402  1.00  0.00     0.136 A 
HETATM    7  C5  UNL     1      24.658   2.833  50.561  1.00  0.00     0.035 A 
HETATM    8  C6  UNL     1      24.474   1.772  51.465  1.00  0.00     0.072 A 
HETATM    9  N3  UNL     1      23.263   1.065  51.833  1.00  0.00    -0.353 N 
HETATM   10  C7  UNL     1      22.001   1.058  51.116  1.00  0.00     0.046 C 
HETATM   11  C8  UNL     1      21.248   0.985  52.216  1.00  0.00     0.010 C 
HETATM   12  C9  UNL     1      20.916   2.215  52.598  1.00  0.00     0.061 C 
HETATM   13  S1  UNL     1      21.044   3.938  52.185  1.00  0.00    -0.118 SA
HETATM   14  C10 UNL     1      22.062   4.268  50.764  1.00  0.00     0.076 A 
HETATM   15  C11 UNL     1      21.867   5.458  50.223  1.00  0.00     0.025 A 
HETATM   16  C12 UNL     1      22.942   5.178  49.503  1.00  0.00     0.082 A 
HETATM   17  S2  UNL     1      23.388   3.564  49.649  1.00  0.00    -0.154 SA
HETATM   18  C13 UNL     1      22.473   2.176  49.001  1.00  0.00     0.061 C 
HETATM   19 CL1  UNL     1      22.356   2.288  47.265  1.00  0.00    -0.078 Cl
HETATM   20  C14 UNL     1      21.904   1.132  49.639  1.00  0.00     0.060 C 
HETATM   21  H3  UNL     1      23.259   0.489  52.703  1.00  0.00     0.166 HD
ENDROOT
TORSDOF 0
ENDMDL
MODEL 3
REMARK VINA RESULT:      -6.7      2.232      4.257
REMARK  0 active torsions:
REMARK  status: ('A' for Active; 'I' for Inactive)
ROOT
HETATM    1  N1  UNL     1      27.691   2.491  53.833  1.00  0.00    -0.191 NA
HETATM    2  C1  UNL     1      26.721   1.868  53.668  1.00  0.00     0.103 C 
HETATM    3  C2  UNL     1      25.520   1.101  53.464  1.00  0.00     0.090 A 
HETATM    4  C3  UNL     1      25.381  -0.153  54.006  1.00  0.00     0.141 A 
HETATM    5  N2  UNL     1      24.233  -0.847  53.792  1.00  0.00    -0.270 NA
HETATM    6  C4  UNL     1      23.209  -0.365  53.065  1.00  0.00     0.136 A 
HETATM    7  C5  UNL     1      23.287   0.894  52.493  1.00  0.00     0.035 A 
HETATM    8  C6  UNL     1      24.467   1.629  52.702  1.00  0.00     0.072 A 
HETATM    9  N3  UNL     1      24.832   2.952  52.237  1.00  0.00    -0.353 N 
HETATM   10  C7  UNL     1      23.941   3.975  51.720  1.00  0.00     0.046 C 
HETATM   11  C8  UNL     1      24.822   4.457  50.841  1.00  0.00     0.010 C 
HETATM   12  C9  UNL     1      24.649   3.847  49.672  1.00  0.00     0.061 C 
HETATM   13  S1  UNL     1      23.657   2.661  48.797  1.00  0.00    -0.118 SA
HETATM   14  C10 UNL     1      22.439   1.849  49.807  1.00  0.00     0.076 A 
HETATM   15  C11 UNL     1      21.468   1.269  49.125  1.00  0.00     0.025 A 
HETATM   16  C12 UNL     1      21.125   0.738  50.288  1.00  0.00     0.082 A 
HETATM   17  S2  UNL     1      21.943   1.457  51.568  1.00  0.00    -0.154 SA
HETATM   18  C13 UNL     1      21.695   3.126  52.146  1.00  0.00     0.061 C 
HETATM   19 CL1  UNL     1      20.054   3.337  52.697  1.00  0.00    -0.078 Cl
HETATM   20  C14 UNL     1      22.553   4.166  52.205  1.00  0.00     0.060 C 
HETATM   21  H3  UNL     1      25.835   3.237  52.260  1.00  0.00     0.166 HD
ENDROOT
TORSDOF 0
ENDMDL
MODEL 4
REMARK VINA RESULT:      -6.6      2.600      4.456
REMARK  0 active torsions:
REMARK  status: ('A' for Active; 'I' for Inactive)
ROOT
HETATM    1  N1  UNL     1      21.255  -0.587  52.767  1.00  0.00    -0.191 NA
HETATM    2  C1  UNL     1      21.521   0.100  51.865  1.00  0.00     0.103 C 
HETATM    3  C2  UNL     1      21.851   0.952  50.752  1.00  0.00     0.090 A 
HETATM    4  C3  UNL     1      21.252   0.780  49.529  1.00  0.00     0.141 A 
HETATM    5  N2  UNL     1      21.588   1.603  48.502  1.00  0.00    -0.270 NA
HETATM    6  C4  UNL     1      22.492   2.593  48.620  1.00  0.00     0.136 A 
HETATM    7  C5  UNL     1      23.130   2.818  49.829  1.00  0.00     0.035 A 
HETATM    8  C6  UNL     1      22.796   1.977  50.904  1.00  0.00     0.072 A 
HETATM    9  N3  UNL     1      23.290   1.971  52.267  1.00  0.00    -0.353 N 
HETATM   10  C7  UNL     1      24.003   3.039  52.944  1.00  0.00     0.046 C 
HETATM   11  C8  UNL     1      24.771   2.220  53.667  1.00  0.00     0.010 C 
HETATM   12  C9  UNL     1      25.909   2.001  53.013  1.00  0.00     0.061 C 
HETATM   13  S1  UNL     1      26.840   2.416  51.559  1.00  0.00    -0.118 SA
HETATM   14  C10 UNL     1      25.971   3.468  50.419  1.00  0.00     0.076 A 
HETATM   15  C11 UNL     1      26.751   4.085  49.548  1.00  0.00     0.025 A 
HETATM   16  C12 UNL     1      25.619   4.432  48.955  1.00  0.00     0.082 A 
HETATM   17  S2  UNL     1      24.283   4.100  49.919  1.00  0.00    -0.154 SA
HETATM   18  C13 UNL     1      23.863   4.947  51.432  1.00  0.00     0.061 C 
HETATM   19 CL1  UNL     1      23.580   6.639  51.118  1.00  0.00    -0.078 Cl
HETATM   20  C14 UNL     1      23.747   4.477  52.692  1.00  0.00     0.060 C 
HETATM   21  H3  UNL     1      23.136   1.125  52.857  1.00  0.00     0.166 HD
ENDROOT
TORSDOF 0
ENDMDL
MODEL 5
REMARK VINA RESULT:      -6.5     10.202     12.562
REMARK  0 active torsions:
REMARK  status: ('A' for Active; 'I' for Inactive)
ROOT
HETATM    1  N1  UNL     1      28.172   4.733  48.632  1.00  0.00    -0.191 NA
HETATM    2  C1  UNL     1      28.753   5.648  48.208  1.00  0.00     0.103 C 
HETATM    3  C2  UNL     1      29.475   6.779  47.685  1.00  0.00     0.090 A 
HETATM    4  C3  UNL     1      28.856   7.991  47.506  1.00  0.00     0.141 A 
HETATM    5  N2  UNL     1      29.569   9.036  47.010  1.00  0.00    -0.270 NA
HETATM    6  C4  UNL     1      30.870   8.945  46.679  1.00  0.00     0.136 A 
HETATM    7  C5  UNL     1      31.552   7.750  46.837  1.00  0.00     0.035 A 
HETATM    8  C6  UNL     1      30.831   6.656  47.348  1.00  0.00     0.072 A 
HETATM    9  N3  UNL     1      31.269   5.301  47.621  1.00  0.00    -0.353 N 
HETATM   10  C7  UNL     1      32.636   4.831  47.742  1.00  0.00     0.046 C 
HETATM   11  C8  UNL     1      32.391   3.634  47.204  1.00  0.00     0.010 C 
HETATM   12  C9  UNL     1      32.626   3.689  45.896  1.00  0.00     0.061 C 
HETATM   13  S1  UNL     1      33.193   4.732  44.575  1.00  0.00    -0.118 SA
HETATM   14  C10 UNL     1      33.529   6.408  45.068  1.00  0.00     0.076 A 
HETATM   15  C11 UNL     1      34.292   7.079  44.224  1.00  0.00     0.025 A 
HETATM   16  C12 UNL     1      33.977   8.134  44.958  1.00  0.00     0.082 A 
HETATM   17  S2  UNL     1      33.218   7.693  46.391  1.00  0.00    -0.154 SA
HETATM   18  C13 UNL     1      33.998   6.854  47.759  1.00  0.00     0.061 C 
HETATM   19 CL1  UNL     1      35.293   7.827  48.404  1.00  0.00    -0.078 Cl
HETATM   20  C14 UNL     1      33.732   5.652  48.312  1.00  0.00     0.060 C 
HETATM   21  H3  UNL     1      30.552   4.554  47.747  1.00  0.00     0.166 HD
ENDROOT
TORSDOF 0
ENDMDL
MODEL 6
REMARK VINA RESULT:      -6.3      5.287      7.516
REMARK  0 active torsions:
REMARK  status: ('A' for Active; 'I' for Inactive)
ROOT
HETATM    1  N1  UNL     1      27.861   9.591  48.080  1.00  0.00    -0.191 NA
HETATM    2  C1  UNL     1      27.704   8.455  48.280  1.00  0.00     0.103 C 
HETATM    3  C2  UNL     1      27.508   7.050  48.530  1.00  0.00     0.090 A 
HETATM    4  C3  UNL     1      28.525   6.149  48.336  1.00  0.00     0.141 A 
HETATM    5  N2  UNL     1      28.304   4.831  48.583  1.00  0.00    -0.270 NA
HETATM    6  C4  UNL     1      27.121   4.354  49.012  1.00  0.00     0.136 A 
HETATM    7  C5  UNL     1      26.055   5.213  49.227  1.00  0.00     0.035 A 
HETATM    8  C6  UNL     1      26.265   6.580  48.978  1.00  0.00     0.072 A 
HETATM    9  N3  UNL     1      25.353   7.699  49.112  1.00  0.00    -0.353 N 
HETATM   10  C7  UNL     1      24.103   7.726  49.849  1.00  0.00     0.046 C 
HETATM   11  C8  UNL     1      23.488   8.550  48.997  1.00  0.00     0.010 C 
HETATM   12  C9  UNL     1      22.830   7.829  48.094  1.00  0.00     0.061 C 
HETATM   13  S1  UNL     1      22.404   6.177  47.599  1.00  0.00    -0.118 SA
HETATM   14  C10 UNL     1      23.170   4.907  48.580  1.00  0.00     0.076 A 
HETATM   15  C11 UNL     1      22.588   3.724  48.485  1.00  0.00     0.025 A 
HETATM   16  C12 UNL     1      23.643   3.281  49.152  1.00  0.00     0.082 A 
HETATM   17  S2  UNL     1      24.562   4.542  49.774  1.00  0.00    -0.154 SA
HETATM   18  C13 UNL     1      24.063   5.631  51.097  1.00  0.00     0.061 C 
HETATM   19 CL1  UNL     1      23.793   4.720  52.559  1.00  0.00    -0.078 Cl
HETATM   20  C14 UNL     1      23.882   6.968  51.104  1.00  0.00     0.060 C 
HETATM   21  H3  UNL     1      25.585   8.600  48.639  1.00  0.00     0.166 HD
ENDROOT
TORSDOF 0
ENDMDL
MODEL 7
REMARK VINA RESULT:      -6.0     10.360     12.754
REMARK  0 active torsions:
REMARK  status: ('A' for Active; 'I' for Inactive)
ROOT
HETATM    1  N1  UNL     1      35.782   8.568  48.261  1.00  0.00    -0.191 NA
HETATM    2  C1  UNL     1      34.777   7.983  48.313  1.00  0.00     0.103 C 
HETATM    3  C2  UNL     1      33.532   7.263  48.379  1.00  0.00     0.090 A 
HETATM    4  C3  UNL     1      33.505   5.921  48.665  1.00  0.00     0.141 A 
HETATM    5  N2  UNL     1      32.312   5.275  48.719  1.00  0.00    -0.270 NA
HETATM    6  C4  UNL     1      31.134   5.889  48.502  1.00  0.00     0.136 A 
HETATM    7  C5  UNL     1      31.093   7.242  48.210  1.00  0.00     0.035 A 
HETATM    8  C6  UNL     1      32.319   7.929  48.149  1.00  0.00     0.072 A 
HETATM    9  N3  UNL     1      32.588   9.326  47.871  1.00  0.00    -0.353 N 
HETATM   10  C7  UNL     1      31.640  10.425  47.911  1.00  0.00     0.046 C 
HETATM   11  C8  UNL     1      32.203  11.095  46.903  1.00  0.00     0.010 C 
HETATM   12  C9  UNL     1      31.608  10.748  45.765  1.00  0.00     0.061 C 
HETATM   13  S1  UNL     1      30.308   9.765  45.057  1.00  0.00    -0.118 SA
HETATM   14  C10 UNL     1      29.453   8.741  46.233  1.00  0.00     0.076 A 
HETATM   15  C11 UNL     1      28.275   8.309  45.820  1.00  0.00     0.025 A 
HETATM   16  C12 UNL     1      28.310   7.537  46.895  1.00  0.00     0.082 A 
HETATM   17  S2  UNL     1      29.555   7.975  47.937  1.00  0.00    -0.154 SA
HETATM   18  C13 UNL     1      29.620   9.478  48.896  1.00  0.00     0.061 C 
HETATM   19 CL1  UNL     1      28.276   9.545  50.005  1.00  0.00    -0.078 Cl
HETATM   20  C14 UNL     1      30.511  10.491  48.869  1.00  0.00     0.060 C 
HETATM   21  H3  UNL     1      33.556   9.612  47.607  1.00  0.00     0.166 HD
ENDROOT
TORSDOF 0
ENDMDL
MODEL 8
REMARK VINA RESULT:      -6.0     11.329     13.516
REMARK  0 active torsions:
REMARK  status: ('A' for Active; 'I' for Inactive)
ROOT
HETATM    1  N1  UNL     1      33.937   3.985  42.000  1.00  0.00    -0.191 NA
HETATM    2  C1  UNL     1      33.486   4.874  42.603  1.00  0.00     0.103 C 
HETATM    3  C2  UNL     1      32.927   5.969  43.352  1.00  0.00     0.090 A 
HETATM    4  C3  UNL     1      32.593   7.150  42.736  1.00  0.00     0.141 A 
HETATM    5  N2  UNL     1      32.068   8.161  43.474  1.00  0.00    -0.270 NA
HETATM    6  C4  UNL     1      31.855   8.068  44.799  1.00  0.00     0.136 A 
HETATM    7  C5  UNL     1      32.169   6.904  45.480  1.00  0.00     0.035 A 
HETATM    8  C6  UNL     1      32.715   5.844  44.733  1.00  0.00     0.072 A 
HETATM    9  N3  UNL     1      33.134   4.525  45.162  1.00  0.00    -0.353 N 
HETATM   10  C7  UNL     1      32.789   3.858  46.404  1.00  0.00     0.046 C 
HETATM   11  C8  UNL     1      33.963   3.234  46.526  1.00  0.00     0.010 C 
HETATM   12  C9  UNL     1      34.779   3.981  47.263  1.00  0.00     0.061 C 
HETATM   13  S1  UNL     1      34.904   5.483  48.204  1.00  0.00    -0.118 SA
HETATM   14  C10 UNL     1      33.450   6.505  48.133  1.00  0.00     0.076 A 
HETATM   15  C11 UNL     1      33.372   7.404  49.098  1.00  0.00     0.025 A 
HETATM   16  C12 UNL     1      32.356   7.892  48.403  1.00  0.00     0.082 A 
HETATM   17  S2  UNL     1      31.877   6.844  47.180  1.00  0.00    -0.154 SA
HETATM   18  C13 UNL     1      31.079   5.267  47.422  1.00  0.00     0.061 C 
HETATM   19 CL1  UNL     1      29.551   5.482  48.234  1.00  0.00    -0.078 Cl
HETATM   20  C14 UNL     1      31.482   4.025  47.082  1.00  0.00     0.060 C 
HETATM   21  H3  UNL     1      33.753   3.963  44.538  1.00  0.00     0.166 HD
ENDROOT
TORSDOF 0
ENDMDL
MODEL 9
REMARK VINA RESULT:      -5.7     10.238     12.174
REMARK  0 active torsions:
REMARK  status: ('A' for Active; 'I' for Inactive)
ROOT
HETATM    1  N1  UNL     1      32.047   3.776  47.835  1.00  0.00    -0.191 NA
HETATM    2  C1  UNL     1      32.479   4.857  47.835  1.00  0.00     0.103 C 
HETATM    3  C2  UNL     1      33.011   6.195  47.832  1.00  0.00     0.090 A 
HETATM    4  C3  UNL     1      34.341   6.428  48.081  1.00  0.00     0.141 A 
HETATM    5  N2  UNL     1      34.807   7.704  48.070  1.00  0.00    -0.270 NA
HETATM    6  C4  UNL     1      34.022   8.770  47.826  1.00  0.00     0.136 A 
HETATM    7  C5  UNL     1      32.672   8.602  47.567  1.00  0.00     0.035 A 
HETATM    8  C6  UNL     1      32.170   7.288  47.574  1.00  0.00     0.072 A 
HETATM    9  N3  UNL     1      30.822   6.808  47.340  1.00  0.00    -0.353 N 
HETATM   10  C7  UNL     1      29.730   7.533  46.718  1.00  0.00     0.046 C 
HETATM   11  C8  UNL     1      28.781   6.978  47.475  1.00  0.00     0.010 C 
HETATM   12  C9  UNL     1      28.565   7.751  48.536  1.00  0.00     0.061 C 
HETATM   13  S1  UNL     1      29.016   9.277  49.326  1.00  0.00    -0.118 SA
HETATM   14  C10 UNL     1      30.319  10.162  48.501  1.00  0.00     0.076 A 
HETATM   15  C11 UNL     1      30.404  11.437  48.834  1.00  0.00     0.025 A 
HETATM   16  C12 UNL     1      31.543  11.418  48.160  1.00  0.00     0.082 A 
HETATM   17  S2  UNL     1      31.715  10.006  47.266  1.00  0.00    -0.154 SA
HETATM   18  C13 UNL     1      30.748   9.565  45.833  1.00  0.00     0.061 C 
HETATM   19 CL1  UNL     1      30.977  10.740  44.565  1.00  0.00    -0.078 Cl
HETATM   20  C14 UNL     1      29.924   8.517  45.625  1.00  0.00     0.060 C 
HETATM   21  H3  UNL     1      30.572   5.841  47.640  1.00  0.00     0.166 HD
ENDROOT
TORSDOF 0
ENDMDL
