MODEL 1
REMARK VINA RESULT:      -7.6      0.000      0.000
REMARK  7 active torsions:
REMARK  status: ('A' for Active; 'I' for Inactive)
REMARK    1  A    between atoms: C1_2  and  N2_3 
REMARK    2  A    between atoms: C2_4  and  C3_5 
REMARK    3  A    between atoms: C3_5  and  C4_6 
REMARK    4  A    between atoms: C7_11  and  C8_12 
REMARK    5  A    between atoms: C8_12  and  C9_13 
REMARK    6  A    between atoms: C10_14  and  N4_15 
REMARK    7  A    between atoms: N4_15  and  C11_16 
ROOT
HETATM    1  C4  UNL     1      26.266   0.289  54.486  1.00  0.00     0.096 C 
HETATM    2  O1  UNL     1      27.422  -0.124  55.099  1.00  0.00    -0.347 OA
HETATM    3  C5  UNL     1      28.719   0.395  54.879  1.00  0.00     0.195 C 
HETATM    4  C6  UNL     1      28.772   1.499  53.867  1.00  0.00     0.146 C 
HETATM    5  N3  UNL     1      27.499   2.212  53.748  1.00  0.00    -0.386 N 
HETATM    6  C7  UNL     1      26.261   1.535  53.753  1.00  0.00     0.061 C 
HETATM    7  H9  UNL     1      27.471   3.267  53.650  1.00  0.00     0.159 HD
ENDROOT
BRANCH   6   8
HETATM    8  C8  UNL     1      25.183   1.938  53.131  1.00  0.00     0.033 C 
BRANCH   8   9
HETATM    9  C9  UNL     1      24.398   3.137  53.382  1.00  0.00     0.019 C 
HETATM   10  C10 UNL     1      23.890   4.010  52.533  1.00  0.00     0.088 C 
BRANCH  10  11
HETATM   11  N4  UNL     1      24.058   3.887  51.130  1.00  0.00    -0.366 N 
HETATM   12  H13 UNL     1      23.498   3.305  50.471  1.00  0.00     0.165 HD
BRANCH  11  13
HETATM   13  C11 UNL     1      25.034   4.541  50.343  1.00  0.00     0.033 A 
HETATM   14  C12 UNL     1      25.993   3.652  49.893  1.00  0.00     0.032 A 
HETATM   15  C13 UNL     1      27.057   4.018  49.090  1.00  0.00     0.046 A 
HETATM   16  C14 UNL     1      27.163   5.348  48.720  1.00  0.00     0.138 A 
HETATM   17  F1  UNL     1      28.191   5.779  47.924  1.00  0.00    -0.204 F 
HETATM   18  C15 UNL     1      26.215   6.237  49.162  1.00  0.00     0.074 A 
HETATM   19 CL1  UNL     1      26.297   7.927  48.716  1.00  0.00    -0.081 Cl
HETATM   20  C16 UNL     1      25.152   5.857  49.968  1.00  0.00     0.056 A 
ENDBRANCH  11  13
ENDBRANCH  10  11
ENDBRANCH   8   9
ENDBRANCH   6   8
BRANCH   1  21
HETATM   21  C3  UNL     1      25.313  -0.533  54.666  1.00  0.00     0.058 C 
BRANCH  21  22
HETATM   22  C2  UNL     1      24.288  -1.348  55.222  1.00  0.00     0.120 C 
HETATM   23  N2  UNL     1      23.401  -0.957  54.329  1.00  0.00    -0.255 NA
BRANCH  23  24
HETATM   24  C1  UNL     1      22.081  -1.495  54.403  1.00  0.00     0.222 C 
HETATM   25  N1  UNL     1      20.866  -1.407  54.837  1.00  0.00    -0.293 NA
HETATM   26  H1  UNL     1      20.608  -0.568  55.444  1.00  0.00     0.187 HD
ENDBRANCH  23  24
ENDBRANCH  21  22
ENDBRANCH   1  21
TORSDOF 7
ENDMDL
MODEL 2
REMARK VINA RESULT:      -7.4      2.235      3.739
REMARK  7 active torsions:
REMARK  status: ('A' for Active; 'I' for Inactive)
REMARK    1  A    between atoms: C1_2  and  N2_3 
REMARK    2  A    between atoms: C2_4  and  C3_5 
REMARK    3  A    between atoms: C3_5  and  C4_6 
REMARK    4  A    between atoms: C7_11  and  C8_12 
REMARK    5  A    between atoms: C8_12  and  C9_13 
REMARK    6  A    between atoms: C10_14  and  N4_15 
REMARK    7  A    between atoms: N4_15  and  C11_16 
ROOT
HETATM    1  C4  UNL     1      23.816  -0.090  53.363  1.00  0.00     0.096 C 
HETATM    2  O1  UNL     1      23.330  -1.191  54.022  1.00  0.00    -0.347 OA
HETATM    3  C5  UNL     1      22.090  -1.285  54.695  1.00  0.00     0.195 C 
HETATM    4  C6  UNL     1      21.273  -0.029  54.651  1.00  0.00     0.146 C 
HETATM    5  N3  UNL     1      21.593   0.807  53.492  1.00  0.00    -0.386 N 
HETATM    6  C7  UNL     1      22.921   1.003  53.057  1.00  0.00     0.061 C 
HETATM    7  H9  UNL     1      20.828   1.295  52.944  1.00  0.00     0.159 HD
ENDROOT
BRANCH   6   8
HETATM    8  C8  UNL     1      23.362   2.079  52.458  1.00  0.00     0.033 C 
BRANCH   8   9
HETATM    9  C9  UNL     1      22.690   3.360  52.305  1.00  0.00     0.019 C 
HETATM   10  C10 UNL     1      22.623   4.162  51.260  1.00  0.00     0.088 C 
BRANCH  10  11
HETATM   11  N4  UNL     1      23.261   3.856  50.030  1.00  0.00    -0.366 N 
HETATM   12  H13 UNL     1      22.911   3.234  49.269  1.00  0.00     0.165 HD
BRANCH  11  13
HETATM   13  C11 UNL     1      24.514   4.343  49.591  1.00  0.00     0.033 A 
HETATM   14  C12 UNL     1      25.498   3.381  49.719  1.00  0.00     0.032 A 
HETATM   15  C13 UNL     1      26.815   3.582  49.351  1.00  0.00     0.046 A 
HETATM   16  C14 UNL     1      27.161   4.817  48.828  1.00  0.00     0.138 A 
HETATM   17  F1  UNL     1      28.448   5.083  48.442  1.00  0.00    -0.204 F 
HETATM   18  C15 UNL     1      26.190   5.778  48.698  1.00  0.00     0.074 A 
HETATM   19 CL1  UNL     1      26.572   7.352  48.034  1.00  0.00    -0.081 Cl
HETATM   20  C16 UNL     1      24.871   5.564  49.071  1.00  0.00     0.056 A 
ENDBRANCH  11  13
ENDBRANCH  10  11
ENDBRANCH   8   9
ENDBRANCH   6   8
BRANCH   1  21
HETATM   21  C3  UNL     1      25.055  -0.202  53.102  1.00  0.00     0.058 C 
BRANCH  21  22
HETATM   22  C2  UNL     1      26.468  -0.345  53.181  1.00  0.00     0.120 C 
HETATM   23  N2  UNL     1      26.428  -1.613  52.825  1.00  0.00    -0.255 NA
BRANCH  23  24
HETATM   24  C1  UNL     1      27.657  -2.331  52.728  1.00  0.00     0.222 C 
HETATM   25  N1  UNL     1      28.371  -3.364  53.040  1.00  0.00    -0.293 NA
HETATM   26  H1  UNL     1      27.933  -4.106  53.670  1.00  0.00     0.187 HD
ENDBRANCH  23  24
ENDBRANCH  21  22
ENDBRANCH   1  21
TORSDOF 7
ENDMDL
MODEL 3
REMARK VINA RESULT:      -7.3      4.075      5.101
REMARK  7 active torsions:
REMARK  status: ('A' for Active; 'I' for Inactive)
REMARK    1  A    between atoms: C1_2  and  N2_3 
REMARK    2  A    between atoms: C2_4  and  C3_5 
REMARK    3  A    between atoms: C3_5  and  C4_6 
REMARK    4  A    between atoms: C7_11  and  C8_12 
REMARK    5  A    between atoms: C8_12  and  C9_13 
REMARK    6  A    between atoms: C10_14  and  N4_15 
REMARK    7  A    between atoms: N4_15  and  C11_16 
ROOT
HETATM    1  C4  UNL     1      26.259   0.562  54.431  1.00  0.00     0.096 C 
HETATM    2  O1  UNL     1      27.355  -0.061  54.972  1.00  0.00    -0.347 OA
HETATM    3  C5  UNL     1      28.705   0.326  54.809  1.00  0.00     0.195 C 
HETATM    4  C6  UNL     1      28.894   1.540  53.950  1.00  0.00     0.146 C 
HETATM    5  N3  UNL     1      27.714   2.408  53.938  1.00  0.00    -0.386 N 
HETATM    6  C7  UNL     1      26.405   1.886  53.867  1.00  0.00     0.061 C 
HETATM    7  H9  UNL     1      27.812   3.462  53.981  1.00  0.00     0.159 HD
ENDROOT
BRANCH   6   8
HETATM    8  C8  UNL     1      25.385   2.492  53.315  1.00  0.00     0.033 C 
BRANCH   8   9
HETATM    9  C9  UNL     1      25.102   2.659  51.898  1.00  0.00     0.019 C 
HETATM   10  C10 UNL     1      24.131   2.151  51.163  1.00  0.00     0.088 C 
BRANCH  10  11
HETATM   11  N4  UNL     1      23.142   1.290  51.705  1.00  0.00    -0.366 N 
HETATM   12  H13 UNL     1      23.290   0.382  52.197  1.00  0.00     0.165 HD
BRANCH  11  13
HETATM   13  C11 UNL     1      21.744   1.500  51.683  1.00  0.00     0.033 A 
HETATM   14  C12 UNL     1      21.422   2.775  52.108  1.00  0.00     0.032 A 
HETATM   15  C13 UNL     1      20.127   3.255  52.173  1.00  0.00     0.046 A 
HETATM   16  C14 UNL     1      19.102   2.408  51.789  1.00  0.00     0.138 A 
HETATM   17  F1  UNL     1      17.796   2.818  51.826  1.00  0.00    -0.204 F 
HETATM   18  C15 UNL     1      19.413   1.139  51.365  1.00  0.00     0.074 A 
HETATM   19 CL1  UNL     1      18.156   0.031  50.861  1.00  0.00    -0.081 Cl
HETATM   20  C16 UNL     1      20.717   0.670  51.306  1.00  0.00     0.056 A 
ENDBRANCH  11  13
ENDBRANCH  10  11
ENDBRANCH   8   9
ENDBRANCH   6   8
BRANCH   1  21
HETATM   21  C3  UNL     1      25.215  -0.159  54.511  1.00  0.00     0.058 C 
BRANCH  21  22
HETATM   22  C2  UNL     1      24.253  -1.150  54.850  1.00  0.00     0.120 C 
HETATM   23  N2  UNL     1      23.262  -0.470  54.308  1.00  0.00    -0.255 NA
BRANCH  23  24
HETATM   24  C1  UNL     1      21.950  -1.028  54.354  1.00  0.00     0.222 C 
HETATM   25  N1  UNL     1      21.132  -1.912  54.825  1.00  0.00    -0.293 NA
HETATM   26  H1  UNL     1      21.509  -2.621  55.528  1.00  0.00     0.187 HD
ENDBRANCH  23  24
ENDBRANCH  21  22
ENDBRANCH   1  21
TORSDOF 7
ENDMDL
MODEL 4
REMARK VINA RESULT:      -7.1      4.429      7.922
REMARK  7 active torsions:
REMARK  status: ('A' for Active; 'I' for Inactive)
REMARK    1  A    between atoms: C1_2  and  N2_3 
REMARK    2  A    between atoms: C2_4  and  C3_5 
REMARK    3  A    between atoms: C3_5  and  C4_6 
REMARK    4  A    between atoms: C7_11  and  C8_12 
REMARK    5  A    between atoms: C8_12  and  C9_13 
REMARK    6  A    between atoms: C10_14  and  N4_15 
REMARK    7  A    between atoms: N4_15  and  C11_16 
ROOT
HETATM    1  C4  UNL     1      23.942   4.531  48.980  1.00  0.00     0.096 C 
HETATM    2  O1  UNL     1      23.100   4.807  47.933  1.00  0.00    -0.347 OA
HETATM    3  C5  UNL     1      22.113   3.945  47.401  1.00  0.00     0.195 C 
HETATM    4  C6  UNL     1      22.027   2.615  48.088  1.00  0.00     0.146 C 
HETATM    5  N3  UNL     1      22.511   2.666  49.470  1.00  0.00    -0.386 N 
HETATM    6  C7  UNL     1      23.664   3.395  49.831  1.00  0.00     0.061 C 
HETATM    7  H9  UNL     1      22.004   2.150  50.245  1.00  0.00     0.159 HD
ENDROOT
BRANCH   6   8
HETATM    8  C8  UNL     1      24.467   3.087  50.817  1.00  0.00     0.033 C 
BRANCH   8   9
HETATM    9  C9  UNL     1      24.137   2.924  52.224  1.00  0.00     0.019 C 
HETATM   10  C10 UNL     1      24.910   2.603  53.244  1.00  0.00     0.088 C 
BRANCH  10  11
HETATM   11  N4  UNL     1      26.297   2.345  53.090  1.00  0.00    -0.366 N 
HETATM   12  H13 UNL     1      27.061   3.041  52.949  1.00  0.00     0.165 HD
BRANCH  11  13
HETATM   13  C11 UNL     1      26.920   1.076  53.097  1.00  0.00     0.033 A 
HETATM   14  C12 UNL     1      26.059   0.092  52.648  1.00  0.00     0.032 A 
HETATM   15  C13 UNL     1      26.411  -1.240  52.538  1.00  0.00     0.046 A 
HETATM   16  C14 UNL     1      27.697  -1.603  52.899  1.00  0.00     0.138 A 
HETATM   17  F1  UNL     1      28.113  -2.905  52.814  1.00  0.00    -0.204 F 
HETATM   18  C15 UNL     1      28.559  -0.632  53.347  1.00  0.00     0.074 A 
HETATM   19 CL1  UNL     1      30.199  -1.035  53.807  1.00  0.00    -0.081 Cl
HETATM   20  C16 UNL     1      28.193   0.702  53.453  1.00  0.00     0.056 A 
ENDBRANCH  11  13
ENDBRANCH  10  11
ENDBRANCH   8   9
ENDBRANCH   6   8
BRANCH   1  21
HETATM   21  C3  UNL     1      24.899   5.365  49.053  1.00  0.00     0.058 C 
BRANCH  21  22
HETATM   22  C2  UNL     1      26.053   6.156  48.801  1.00  0.00     0.120 C 
HETATM   23  N2  UNL     1      26.843   5.103  48.733  1.00  0.00    -0.255 NA
BRANCH  23  24
HETATM   24  C1  UNL     1      28.232   5.311  48.478  1.00  0.00     0.222 C 
HETATM   25  N1  UNL     1      29.429   5.508  48.926  1.00  0.00    -0.293 NA
HETATM   26  H1  UNL     1      29.567   5.558  49.983  1.00  0.00     0.187 HD
ENDBRANCH  23  24
ENDBRANCH  21  22
ENDBRANCH   1  21
TORSDOF 7
ENDMDL
MODEL 5
REMARK VINA RESULT:      -7.1      3.151      5.608
REMARK  7 active torsions:
REMARK  status: ('A' for Active; 'I' for Inactive)
REMARK    1  A    between atoms: C1_2  and  N2_3 
REMARK    2  A    between atoms: C2_4  and  C3_5 
REMARK    3  A    between atoms: C3_5  and  C4_6 
REMARK    4  A    between atoms: C7_11  and  C8_12 
REMARK    5  A    between atoms: C8_12  and  C9_13 
REMARK    6  A    between atoms: C10_14  and  N4_15 
REMARK    7  A    between atoms: N4_15  and  C11_16 
ROOT
HETATM    1  C4  UNL     1      27.008   1.179  52.630  1.00  0.00     0.096 C 
HETATM    2  O1  UNL     1      28.280   1.643  52.851  1.00  0.00    -0.347 OA
HETATM    3  C5  UNL     1      29.163   1.218  53.871  1.00  0.00     0.195 C 
HETATM    4  C6  UNL     1      28.597   0.158  54.766  1.00  0.00     0.146 C 
HETATM    5  N3  UNL     1      27.553  -0.632  54.110  1.00  0.00    -0.386 N 
HETATM    6  C7  UNL     1      26.576  -0.037  53.283  1.00  0.00     0.061 C 
HETATM    7  H9  UNL     1      27.499  -1.682  54.242  1.00  0.00     0.159 HD
ENDROOT
BRANCH   6   8
HETATM    8  C8  UNL     1      25.359  -0.487  53.118  1.00  0.00     0.033 C 
BRANCH   8   9
HETATM    9  C9  UNL     1      24.311  -0.623  54.117  1.00  0.00     0.019 C 
HETATM   10  C10 UNL     1      22.998  -0.615  53.975  1.00  0.00     0.088 C 
BRANCH  10  11
HETATM   11  N4  UNL     1      22.376  -0.453  52.711  1.00  0.00    -0.366 N 
HETATM   12  H13 UNL     1      22.055  -1.202  52.059  1.00  0.00     0.165 HD
BRANCH  11  13
HETATM   13  C11 UNL     1      22.066   0.773  52.079  1.00  0.00     0.033 A 
HETATM   14  C12 UNL     1      21.116   1.479  52.793  1.00  0.00     0.032 A 
HETATM   15  C13 UNL     1      20.639   2.719  52.412  1.00  0.00     0.046 A 
HETATM   16  C14 UNL     1      21.143   3.279  51.251  1.00  0.00     0.138 A 
HETATM   17  F1  UNL     1      20.716   4.506  50.815  1.00  0.00    -0.204 F 
HETATM   18  C15 UNL     1      22.088   2.585  50.535  1.00  0.00     0.074 A 
HETATM   19 CL1  UNL     1      22.765   3.252  49.066  1.00  0.00    -0.081 Cl
HETATM   20  C16 UNL     1      22.558   1.341  50.928  1.00  0.00     0.056 A 
ENDBRANCH  11  13
ENDBRANCH  10  11
ENDBRANCH   8   9
ENDBRANCH   6   8
BRANCH   1  21
HETATM   21  C3  UNL     1      26.359   1.930  51.837  1.00  0.00     0.058 C 
BRANCH  21  22
HETATM   22  C2  UNL     1      25.840   3.036  51.108  1.00  0.00     0.120 C 
HETATM   23  N2  UNL     1      26.885   3.085  50.307  1.00  0.00    -0.255 NA
BRANCH  23  24
HETATM   24  C1  UNL     1      26.914   4.085  49.288  1.00  0.00     0.222 C 
HETATM   25  N1  UNL     1      27.333   5.234  48.868  1.00  0.00    -0.293 NA
HETATM   26  H1  UNL     1      27.973   5.800  49.507  1.00  0.00     0.187 HD
ENDBRANCH  23  24
ENDBRANCH  21  22
ENDBRANCH   1  21
TORSDOF 7
ENDMDL
MODEL 6
REMARK VINA RESULT:      -7.0      3.820      7.336
REMARK  7 active torsions:
REMARK  status: ('A' for Active; 'I' for Inactive)
REMARK    1  A    between atoms: C1_2  and  N2_3 
REMARK    2  A    between atoms: C2_4  and  C3_5 
REMARK    3  A    between atoms: C3_5  and  C4_6 
REMARK    4  A    between atoms: C7_11  and  C8_12 
REMARK    5  A    between atoms: C8_12  and  C9_13 
REMARK    6  A    between atoms: C10_14  and  N4_15 
REMARK    7  A    between atoms: N4_15  and  C11_16 
ROOT
HETATM    1  C4  UNL     1      23.567   4.384  50.882  1.00  0.00     0.096 C 
HETATM    2  O1  UNL     1      22.901   5.462  50.358  1.00  0.00    -0.347 OA
HETATM    3  C5  UNL     1      21.514   5.722  50.460  1.00  0.00     0.195 C 
HETATM    4  C6  UNL     1      20.752   4.682  51.224  1.00  0.00     0.146 C 
HETATM    5  N3  UNL     1      21.594   3.961  52.182  1.00  0.00    -0.386 N 
HETATM    6  C7  UNL     1      22.906   3.553  51.863  1.00  0.00     0.061 C 
HETATM    7  H9  UNL     1      21.235   3.722  53.150  1.00  0.00     0.159 HD
ENDROOT
BRANCH   6   8
HETATM    8  C8  UNL     1      23.503   2.499  52.356  1.00  0.00     0.033 C 
BRANCH   8   9
HETATM    9  C9  UNL     1      23.164   1.099  52.154  1.00  0.00     0.019 C 
HETATM   10  C10 UNL     1      23.576   0.025  52.801  1.00  0.00     0.088 C 
BRANCH  10  11
HETATM   11  N4  UNL     1      24.495   0.098  53.879  1.00  0.00    -0.366 N 
HETATM   12  H13 UNL     1      24.277   0.193  54.895  1.00  0.00     0.165 HD
BRANCH  11  13
HETATM   13  C11 UNL     1      25.905   0.056  53.783  1.00  0.00     0.033 A 
HETATM   14  C12 UNL     1      26.329  -1.088  53.134  1.00  0.00     0.032 A 
HETATM   15  C13 UNL     1      27.659  -1.378  52.889  1.00  0.00     0.046 A 
HETATM   16  C14 UNL     1      28.611  -0.471  53.320  1.00  0.00     0.138 A 
HETATM   17  F1  UNL     1      29.946  -0.695  53.109  1.00  0.00    -0.204 F 
HETATM   18  C15 UNL     1      28.198   0.668  53.966  1.00  0.00     0.074 A 
HETATM   19 CL1  UNL     1      29.360   1.852  54.523  1.00  0.00    -0.081 Cl
HETATM   20  C16 UNL     1      26.861   0.948  54.206  1.00  0.00     0.056 A 
ENDBRANCH  11  13
ENDBRANCH  10  11
ENDBRANCH   8   9
ENDBRANCH   6   8
BRANCH   1  21
HETATM   21  C3  UNL     1      24.737   4.268  50.399  1.00  0.00     0.058 C 
BRANCH  21  22
HETATM   22  C2  UNL     1      25.992   3.780  49.939  1.00  0.00     0.120 C 
HETATM   23  N2  UNL     1      26.314   4.933  49.387  1.00  0.00    -0.255 NA
BRANCH  23  24
HETATM   24  C1  UNL     1      27.574   5.039  48.724  1.00  0.00     0.222 C 
HETATM   25  N1  UNL     1      28.856   5.194  48.789  1.00  0.00    -0.293 NA
HETATM   26  H1  UNL     1      29.301   5.307  49.753  1.00  0.00     0.187 HD
ENDBRANCH  23  24
ENDBRANCH  21  22
ENDBRANCH   1  21
TORSDOF 7
ENDMDL
MODEL 7
REMARK VINA RESULT:      -7.0      4.403      6.119
REMARK  7 active torsions:
REMARK  status: ('A' for Active; 'I' for Inactive)
REMARK    1  A    between atoms: C1_2  and  N2_3 
REMARK    2  A    between atoms: C2_4  and  C3_5 
REMARK    3  A    between atoms: C3_5  and  C4_6 
REMARK    4  A    between atoms: C7_11  and  C8_12 
REMARK    5  A    between atoms: C8_12  and  C9_13 
REMARK    6  A    between atoms: C10_14  and  N4_15 
REMARK    7  A    between atoms: N4_15  and  C11_16 
ROOT
HETATM    1  C4  UNL     1      26.907   1.091  52.605  1.00  0.00     0.096 C 
HETATM    2  O1  UNL     1      28.107   1.737  52.755  1.00  0.00    -0.347 OA
HETATM    3  C5  UNL     1      29.064   1.504  53.771  1.00  0.00     0.195 C 
HETATM    4  C6  UNL     1      28.671   0.438  54.748  1.00  0.00     0.146 C 
HETATM    5  N3  UNL     1      27.730  -0.528  54.175  1.00  0.00    -0.386 N 
HETATM    6  C7  UNL     1      26.662  -0.127  53.345  1.00  0.00     0.061 C 
HETATM    7  H9  UNL     1      27.825  -1.565  54.373  1.00  0.00     0.159 HD
ENDROOT
BRANCH   6   8
HETATM    8  C8  UNL     1      25.515  -0.748  53.247  1.00  0.00     0.033 C 
BRANCH   8   9
HETATM    9  C9  UNL     1      24.314  -0.544  54.043  1.00  0.00     0.019 C 
HETATM   10  C10 UNL     1      23.118  -0.124  53.678  1.00  0.00     0.088 C 
BRANCH  10  11
HETATM   11  N4  UNL     1      22.813   0.221  52.336  1.00  0.00    -0.366 N 
HETATM   12  H13 UNL     1      23.484   0.423  51.564  1.00  0.00     0.165 HD
BRANCH  11  13
HETATM   13  C11 UNL     1      21.521   0.359  51.778  1.00  0.00     0.033 A 
HETATM   14  C12 UNL     1      21.571   0.989  50.549  1.00  0.00     0.032 A 
HETATM   15  C13 UNL     1      20.454   1.241  49.774  1.00  0.00     0.046 A 
HETATM   16  C14 UNL     1      19.222   0.838  50.261  1.00  0.00     0.138 A 
HETATM   17  F1  UNL     1      18.075   1.054  49.545  1.00  0.00    -0.204 F 
HETATM   18  C15 UNL     1      19.164   0.211  51.481  1.00  0.00     0.074 A 
HETATM   19 CL1  UNL     1      17.634  -0.328  52.138  1.00  0.00    -0.081 Cl
HETATM   20  C16 UNL     1      20.292  -0.035  52.249  1.00  0.00     0.056 A 
ENDBRANCH  11  13
ENDBRANCH  10  11
ENDBRANCH   8   9
ENDBRANCH   6   8
BRANCH   1  21
HETATM   21  C3  UNL     1      26.142   1.693  51.787  1.00  0.00     0.058 C 
BRANCH  21  22
HETATM   22  C2  UNL     1      25.286   2.627  51.140  1.00  0.00     0.120 C 
HETATM   23  N2  UNL     1      24.609   2.873  52.243  1.00  0.00    -0.255 NA
BRANCH  23  24
HETATM   24  C1  UNL     1      23.536   3.813  52.187  1.00  0.00     0.222 C 
HETATM   25  N1  UNL     1      22.274   4.070  52.299  1.00  0.00    -0.293 NA
HETATM   26  H1  UNL     1      21.618   3.267  52.553  1.00  0.00     0.187 HD
ENDBRANCH  23  24
ENDBRANCH  21  22
ENDBRANCH   1  21
TORSDOF 7
ENDMDL
MODEL 8
REMARK VINA RESULT:      -6.9      5.252      8.952
REMARK  7 active torsions:
REMARK  status: ('A' for Active; 'I' for Inactive)
REMARK    1  A    between atoms: C1_2  and  N2_3 
REMARK    2  A    between atoms: C2_4  and  C3_5 
REMARK    3  A    between atoms: C3_5  and  C4_6 
REMARK    4  A    between atoms: C7_11  and  C8_12 
REMARK    5  A    between atoms: C8_12  and  C9_13 
REMARK    6  A    between atoms: C10_14  and  N4_15 
REMARK    7  A    between atoms: N4_15  and  C11_16 
ROOT
HETATM    1  C4  UNL     1      29.907   6.236  48.261  1.00  0.00     0.096 C 
HETATM    2  O1  UNL     1      30.567   7.435  48.349  1.00  0.00    -0.347 OA
HETATM    3  C5  UNL     1      29.977   8.705  48.547  1.00  0.00     0.195 C 
HETATM    4  C6  UNL     1      28.483   8.673  48.662  1.00  0.00     0.146 C 
HETATM    5  N3  UNL     1      27.984   7.379  49.133  1.00  0.00    -0.386 N 
HETATM    6  C7  UNL     1      28.522   6.159  48.671  1.00  0.00     0.061 C 
HETATM    7  H9  UNL     1      27.195   7.322  49.838  1.00  0.00     0.159 HD
ENDROOT
BRANCH   6   8
HETATM    8  C8  UNL     1      27.857   5.037  48.567  1.00  0.00     0.033 C 
BRANCH   8   9
HETATM    9  C9  UNL     1      26.496   4.759  48.998  1.00  0.00     0.019 C 
HETATM   10  C10 UNL     1      26.058   4.014  49.995  1.00  0.00     0.088 C 
BRANCH  10  11
HETATM   11  N4  UNL     1      26.939   3.317  50.861  1.00  0.00    -0.366 N 
HETATM   12  H13 UNL     1      27.975   3.416  50.930  1.00  0.00     0.165 HD
BRANCH  11  13
HETATM   13  C11 UNL     1      26.577   2.336  51.813  1.00  0.00     0.033 A 
HETATM   14  C12 UNL     1      25.283   1.894  51.610  1.00  0.00     0.032 A 
HETATM   15  C13 UNL     1      24.675   0.925  52.387  1.00  0.00     0.046 A 
HETATM   16  C14 UNL     1      25.408   0.372  53.423  1.00  0.00     0.138 A 
HETATM   17  F1  UNL     1      24.869  -0.594  54.231  1.00  0.00    -0.204 F 
HETATM   18  C15 UNL     1      26.694   0.805  53.632  1.00  0.00     0.074 A 
HETATM   19 CL1  UNL     1      27.666   0.131  54.922  1.00  0.00    -0.081 Cl
HETATM   20  C16 UNL     1      27.292   1.778  52.845  1.00  0.00     0.056 A 
ENDBRANCH  11  13
ENDBRANCH  10  11
ENDBRANCH   8   9
ENDBRANCH   6   8
BRANCH   1  21
HETATM   21  C3  UNL     1      30.655   5.314  47.805  1.00  0.00     0.058 C 
BRANCH  21  22
HETATM   22  C2  UNL     1      31.751   4.549  47.320  1.00  0.00     0.120 C 
HETATM   23  N2  UNL     1      32.594   5.088  48.179  1.00  0.00    -0.255 NA
BRANCH  23  24
HETATM   24  C1  UNL     1      33.956   4.662  48.152  1.00  0.00     0.222 C 
HETATM   25  N1  UNL     1      34.965   4.119  48.752  1.00  0.00    -0.293 NA
HETATM   26  H1  UNL     1      34.834   3.793  49.759  1.00  0.00     0.187 HD
ENDBRANCH  23  24
ENDBRANCH  21  22
ENDBRANCH   1  21
TORSDOF 7
ENDMDL
MODEL 9
REMARK VINA RESULT:      -6.7      4.355      6.455
REMARK  7 active torsions:
REMARK  status: ('A' for Active; 'I' for Inactive)
REMARK    1  A    between atoms: C1_2  and  N2_3 
REMARK    2  A    between atoms: C2_4  and  C3_5 
REMARK    3  A    between atoms: C3_5  and  C4_6 
REMARK    4  A    between atoms: C7_11  and  C8_12 
REMARK    5  A    between atoms: C8_12  and  C9_13 
REMARK    6  A    between atoms: C10_14  and  N4_15 
REMARK    7  A    between atoms: N4_15  and  C11_16 
ROOT
HETATM    1  C4  UNL     1      21.284   0.026  52.649  1.00  0.00     0.096 C 
HETATM    2  O1  UNL     1      20.451  -0.823  53.333  1.00  0.00    -0.347 OA
HETATM    3  C5  UNL     1      20.832  -1.741  54.340  1.00  0.00     0.195 C 
HETATM    4  C6  UNL     1      22.300  -1.741  54.643  1.00  0.00     0.146 C 
HETATM    5  N3  UNL     1      22.940  -0.465  54.316  1.00  0.00    -0.386 N 
HETATM    6  C7  UNL     1      22.625   0.249  53.140  1.00  0.00     0.061 C 
HETATM    7  H9  UNL     1      23.667  -0.039  54.959  1.00  0.00     0.159 HD
ENDROOT
BRANCH   6   8
HETATM    8  C8  UNL     1      23.453   1.027  52.492  1.00  0.00     0.033 C 
BRANCH   8   9
HETATM    9  C9  UNL     1      23.981   2.317  52.906  1.00  0.00     0.019 C 
HETATM   10  C10 UNL     1      25.167   2.855  52.693  1.00  0.00     0.088 C 
BRANCH  10  11
HETATM   11  N4  UNL     1      26.183   2.182  51.966  1.00  0.00    -0.366 N 
HETATM   12  H13 UNL     1      26.438   2.308  50.963  1.00  0.00     0.165 HD
BRANCH  11  13
HETATM   13  C11 UNL     1      27.060   1.194  52.471  1.00  0.00     0.033 A 
HETATM   14  C12 UNL     1      28.103   1.762  53.177  1.00  0.00     0.032 A 
HETATM   15  C13 UNL     1      29.100   1.028  53.791  1.00  0.00     0.046 A 
HETATM   16  C14 UNL     1      29.046  -0.352  53.690  1.00  0.00     0.138 A 
HETATM   17  F1  UNL     1      30.000  -1.141  54.276  1.00  0.00    -0.204 F 
HETATM   18  C15 UNL     1      28.013  -0.925  52.990  1.00  0.00     0.074 A 
HETATM   19 CL1  UNL     1      27.891  -2.664  52.839  1.00  0.00    -0.081 Cl
HETATM   20  C16 UNL     1      27.019  -0.177  52.377  1.00  0.00     0.056 A 
ENDBRANCH  11  13
ENDBRANCH  10  11
ENDBRANCH   8   9
ENDBRANCH   6   8
BRANCH   1  21
HETATM   21  C3  UNL     1      20.718   0.521  51.624  1.00  0.00     0.058 C 
BRANCH  21  22
HETATM   22  C2  UNL     1      19.890   0.760  50.493  1.00  0.00     0.120 C 
HETATM   23  N2  UNL     1      20.818   1.465  49.877  1.00  0.00    -0.255 NA
BRANCH  23  24
HETATM   24  C1  UNL     1      20.519   2.004  48.590  1.00  0.00     0.222 C 
HETATM   25  N1  UNL     1      19.649   2.463  47.750  1.00  0.00    -0.293 NA
HETATM   26  H1  UNL     1      18.628   2.506  48.057  1.00  0.00     0.187 HD
ENDBRANCH  23  24
ENDBRANCH  21  22
ENDBRANCH   1  21
TORSDOF 7
ENDMDL
