MODEL 1
REMARK VINA RESULT:      -8.2      0.000      0.000
REMARK  4 active torsions:
REMARK  status: ('A' for Active; 'I' for Inactive)
REMARK    1  A    between atoms: S1_2  and  N1_3 
REMARK    2  A    between atoms: N1_3  and  C2_4 
REMARK    3  A    between atoms: C2_4  and  C3_5 
REMARK    4  A    between atoms: C5_7  and  C6_8 
ROOT
HETATM    1  C3  UNL     1      25.060   2.127  52.633  1.00  0.00     0.010 C 
HETATM    2  C4  UNL     1      24.820   1.017  53.329  1.00  0.00     0.081 C 
HETATM    3  C5  UNL     1      23.862   0.029  53.776  1.00  0.00    -0.029 C 
HETATM    4  C13 UNL     1      24.564  -0.823  54.496  1.00  0.00     0.074 C 
HETATM    5  C14 UNL     1      25.902  -0.441  54.527  1.00  0.00    -0.065 C 
HETATM    6  C15 UNL     1      26.996  -0.130  54.531  1.00  0.00    -0.013 C 
HETATM    7  S2  UNL     1      28.662   0.354  54.506  1.00  0.00     0.006 SA
HETATM    8  N2  UNL     1      28.826   1.486  53.082  1.00  0.00    -0.233 NA
HETATM    9  C16 UNL     1      27.658   2.091  52.848  1.00  0.00     0.324 C 
HETATM   10  N3  UNL     1      26.387   2.600  52.771  1.00  0.00    -0.360 N 
HETATM   11  H15 UNL     1      26.760   3.587  52.875  1.00  0.00     0.165 HD
ENDROOT
BRANCH   3  12
HETATM   12  C6  UNL     1      22.463  -0.353  53.717  1.00  0.00    -0.026 A 
HETATM   13  C7  UNL     1      21.936  -1.416  54.363  1.00  0.00     0.015 A 
HETATM   14  C8  UNL     1      20.589  -1.645  54.207  1.00  0.00     0.040 A 
HETATM   15  C9  UNL     1      19.745  -0.879  53.448  1.00  0.00     0.105 A 
HETATM   16  C10 UNL     1      20.302   0.213  52.789  1.00  0.00     0.105 A 
HETATM   17  O2  UNL     1      18.376  -0.910  53.142  1.00  0.00    -0.323 OA
HETATM   18  C11 UNL     1      21.653   0.447  52.942  1.00  0.00     0.051 A 
HETATM   19  O1  UNL     1      19.242   0.797  52.112  1.00  0.00    -0.323 OA
HETATM   20  C12 UNL     1      18.196  -0.155  51.959  1.00  0.00     0.352 C 
ENDBRANCH   3  12
BRANCH   1  21
HETATM   21  C2  UNL     1      24.491   3.226  51.751  1.00  0.00     0.152 C 
BRANCH  21  22
HETATM   22  N1  UNL     1      24.176   4.411  52.468  1.00  0.00    -0.263 NA
HETATM   23  H4  UNL     1      24.085   4.251  53.489  1.00  0.00     0.135 HD
BRANCH  22  24
HETATM   24  S1  UNL     1      22.726   5.119  51.756  1.00  0.00    -0.089 SA
HETATM   25  C1  UNL     1      21.311   3.988  51.909  1.00  0.00     0.108 C 
ENDBRANCH  22  24
ENDBRANCH  21  22
ENDBRANCH   1  21
TORSDOF 4
ENDMDL
MODEL 2
REMARK VINA RESULT:      -7.9      4.167      6.585
REMARK  4 active torsions:
REMARK  status: ('A' for Active; 'I' for Inactive)
REMARK    1  A    between atoms: S1_2  and  N1_3 
REMARK    2  A    between atoms: N1_3  and  C2_4 
REMARK    3  A    between atoms: C2_4  and  C3_5 
REMARK    4  A    between atoms: C5_7  and  C6_8 
ROOT
HETATM    1  C3  UNL     1      23.524   3.498  51.776  1.00  0.00     0.010 C 
HETATM    2  C4  UNL     1      23.713   2.316  52.361  1.00  0.00     0.081 C 
HETATM    3  C5  UNL     1      24.640   1.355  52.917  1.00  0.00    -0.029 C 
HETATM    4  C13 UNL     1      23.885   0.359  53.334  1.00  0.00     0.074 C 
HETATM    5  C14 UNL     1      22.545   0.631  53.083  1.00  0.00    -0.065 C 
HETATM    6  C15 UNL     1      21.450   0.871  52.890  1.00  0.00    -0.013 C 
HETATM    7  S2  UNL     1      19.786   1.269  52.603  1.00  0.00     0.006 SA
HETATM    8  N2  UNL     1      19.745   3.080  52.362  1.00  0.00    -0.233 NA
HETATM    9  C16 UNL     1      20.919   3.498  51.879  1.00  0.00     0.324 C 
HETATM   10  N3  UNL     1      22.180   3.725  51.392  1.00  0.00    -0.360 N 
HETATM   11  H15 UNL     1      21.779   4.170  50.517  1.00  0.00     0.165 HD
ENDROOT
BRANCH   3  12
HETATM   12  C6  UNL     1      26.046   1.101  53.178  1.00  0.00    -0.026 A 
HETATM   13  C7  UNL     1      26.967   2.065  53.392  1.00  0.00     0.015 A 
HETATM   14  C8  UNL     1      28.260   1.661  53.627  1.00  0.00     0.040 A 
HETATM   15  C9  UNL     1      28.683   0.359  53.658  1.00  0.00     0.105 A 
HETATM   16  C10 UNL     1      27.722  -0.624  53.435  1.00  0.00     0.105 A 
HETATM   17  O2  UNL     1      29.911  -0.284  53.870  1.00  0.00    -0.323 OA
HETATM   18  C11 UNL     1      26.423  -0.224  53.200  1.00  0.00     0.051 A 
HETATM   19  O1  UNL     1      28.415  -1.822  53.524  1.00  0.00    -0.323 OA
HETATM   20  C12 UNL     1      29.802  -1.584  53.320  1.00  0.00     0.352 C 
ENDBRANCH   3  12
BRANCH   1  21
HETATM   21  C2  UNL     1      24.158   4.771  51.239  1.00  0.00     0.152 C 
BRANCH  21  22
HETATM   22  N1  UNL     1      23.799   5.929  51.980  1.00  0.00    -0.263 NA
HETATM   23  H4  UNL     1      22.817   5.905  52.312  1.00  0.00     0.135 HD
BRANCH  22  24
HETATM   24  S1  UNL     1      24.152   7.347  50.993  1.00  0.00    -0.089 SA
HETATM   25  C1  UNL     1      25.644   7.083  49.990  1.00  0.00     0.108 C 
ENDBRANCH  22  24
ENDBRANCH  21  22
ENDBRANCH   1  21
TORSDOF 4
ENDMDL
MODEL 3
REMARK VINA RESULT:      -7.9      1.796      2.393
REMARK  4 active torsions:
REMARK  status: ('A' for Active; 'I' for Inactive)
REMARK    1  A    between atoms: S1_2  and  N1_3 
REMARK    2  A    between atoms: N1_3  and  C2_4 
REMARK    3  A    between atoms: C2_4  and  C3_5 
REMARK    4  A    between atoms: C5_7  and  C6_8 
ROOT
HETATM    1  C3  UNL     1      25.775   2.272  51.867  1.00  0.00     0.010 C 
HETATM    2  C4  UNL     1      25.115   1.330  52.538  1.00  0.00     0.081 C 
HETATM    3  C5  UNL     1      23.883   0.597  52.736  1.00  0.00    -0.029 C 
HETATM    4  C13 UNL     1      24.148  -0.256  53.705  1.00  0.00     0.074 C 
HETATM    5  C14 UNL     1      25.466  -0.114  54.126  1.00  0.00    -0.065 C 
HETATM    6  C15 UNL     1      26.550  -0.002  54.450  1.00  0.00    -0.013 C 
HETATM    7  S2  UNL     1      28.213   0.174  54.914  1.00  0.00     0.006 SA
HETATM    8  N2  UNL     1      29.022   1.051  53.530  1.00  0.00    -0.233 NA
HETATM    9  C16 UNL     1      28.127   1.812  52.893  1.00  0.00     0.324 C 
HETATM   10  N3  UNL     1      27.072   2.520  52.379  1.00  0.00    -0.360 N 
HETATM   11  H15 UNL     1      27.597   3.431  52.517  1.00  0.00     0.165 HD
ENDROOT
BRANCH   3  12
HETATM   12  C6  UNL     1      22.514   0.461  52.270  1.00  0.00    -0.026 A 
HETATM   13  C7  UNL     1      22.062   0.937  51.089  1.00  0.00     0.015 A 
HETATM   14  C8  UNL     1      20.737   0.726  50.791  1.00  0.00     0.040 A 
HETATM   15  C9  UNL     1      19.843   0.074  51.599  1.00  0.00     0.105 A 
HETATM   16  C10 UNL     1      20.324  -0.410  52.812  1.00  0.00     0.105 A 
HETATM   17  O2  UNL     1      18.482  -0.255  51.517  1.00  0.00    -0.323 OA
HETATM   18  C11 UNL     1      21.654  -0.201  53.117  1.00  0.00     0.051 A 
HETATM   19  O1  UNL     1      19.229  -1.013  53.412  1.00  0.00    -0.323 OA
HETATM   20  C12 UNL     1      18.032  -0.502  52.836  1.00  0.00     0.352 C 
ENDBRANCH   3  12
BRANCH   1  21
HETATM   21  C2  UNL     1      25.734   3.319  50.767  1.00  0.00     0.152 C 
BRANCH  21  22
HETATM   22  N1  UNL     1      27.020   3.818  50.422  1.00  0.00    -0.263 NA
HETATM   23  H4  UNL     1      27.485   4.307  51.209  1.00  0.00     0.135 HD
BRANCH  22  24
HETATM   24  S1  UNL     1      26.853   4.833  48.990  1.00  0.00    -0.089 SA
HETATM   25  C1  UNL     1      26.035   6.403  49.400  1.00  0.00     0.108 C 
ENDBRANCH  22  24
ENDBRANCH  21  22
ENDBRANCH   1  21
TORSDOF 4
ENDMDL
MODEL 4
REMARK VINA RESULT:      -7.8      4.438      6.738
REMARK  4 active torsions:
REMARK  status: ('A' for Active; 'I' for Inactive)
REMARK    1  A    between atoms: S1_2  and  N1_3 
REMARK    2  A    between atoms: N1_3  and  C2_4 
REMARK    3  A    between atoms: C2_4  and  C3_5 
REMARK    4  A    between atoms: C5_7  and  C6_8 
ROOT
HETATM    1  C3  UNL     1      20.972   0.862  51.493  1.00  0.00     0.010 C 
HETATM    2  C4  UNL     1      21.574   0.263  52.519  1.00  0.00     0.081 C 
HETATM    3  C5  UNL     1      22.758   0.124  53.339  1.00  0.00    -0.029 C 
HETATM    4  C13 UNL     1      22.442  -0.784  54.240  1.00  0.00     0.074 C 
HETATM    5  C14 UNL     1      21.136  -1.222  54.047  1.00  0.00    -0.065 C 
HETATM    6  C15 UNL     1      20.061  -1.560  53.890  1.00  0.00    -0.013 C 
HETATM    7  S2  UNL     1      18.414  -2.045  53.644  1.00  0.00     0.006 SA
HETATM    8  N2  UNL     1      17.659  -0.731  52.625  1.00  0.00    -0.233 NA
HETATM    9  C16 UNL     1      18.598  -0.143  51.877  1.00  0.00     0.324 C 
HETATM   10  N3  UNL     1      19.694   0.327  51.202  1.00  0.00    -0.360 N 
HETATM   11  H15 UNL     1      19.228   0.122  50.272  1.00  0.00     0.165 HD
ENDROOT
BRANCH   3  12
HETATM   12  C6  UNL     1      24.115   0.607  53.526  1.00  0.00    -0.026 A 
HETATM   13  C7  UNL     1      24.567   1.799  53.079  1.00  0.00     0.015 A 
HETATM   14  C8  UNL     1      25.880   2.112  53.338  1.00  0.00     0.040 A 
HETATM   15  C9  UNL     1      26.762   1.309  54.011  1.00  0.00     0.105 A 
HETATM   16  C10 UNL     1      26.281   0.083  54.466  1.00  0.00     0.105 A 
HETATM   17  O2  UNL     1      28.110   1.405  54.387  1.00  0.00    -0.323 OA
HETATM   18  C11 UNL     1      24.964  -0.236  54.209  1.00  0.00     0.051 A 
HETATM   19  O1  UNL     1      27.364  -0.508  55.100  1.00  0.00    -0.323 OA
HETATM   20  C12 UNL     1      28.569   0.090  54.636  1.00  0.00     0.352 C 
ENDBRANCH   3  12
BRANCH   1  21
HETATM   21  C2  UNL     1      21.077   1.887  50.376  1.00  0.00     0.152 C 
BRANCH  21  22
HETATM   22  N1  UNL     1      20.825   1.338  49.089  1.00  0.00    -0.263 NA
HETATM   23  H4  UNL     1      20.709   0.307  49.108  1.00  0.00     0.135 HD
BRANCH  22  24
HETATM   24  S1  UNL     1      22.112   1.861  48.003  1.00  0.00    -0.089 SA
HETATM   25  C1  UNL     1      23.196   3.071  48.819  1.00  0.00     0.108 C 
ENDBRANCH  22  24
ENDBRANCH  21  22
ENDBRANCH   1  21
TORSDOF 4
ENDMDL
MODEL 5
REMARK VINA RESULT:      -7.7      4.188      6.949
REMARK  4 active torsions:
REMARK  status: ('A' for Active; 'I' for Inactive)
REMARK    1  A    between atoms: S1_2  and  N1_3 
REMARK    2  A    between atoms: N1_3  and  C2_4 
REMARK    3  A    between atoms: C2_4  and  C3_5 
REMARK    4  A    between atoms: C5_7  and  C6_8 
ROOT
HETATM    1  C3  UNL     1      23.011   1.457  51.474  1.00  0.00     0.010 C 
HETATM    2  C4  UNL     1      24.217   1.952  51.199  1.00  0.00     0.081 C 
HETATM    3  C5  UNL     1      25.647   1.893  51.411  1.00  0.00    -0.029 C 
HETATM    4  C13 UNL     1      26.142   2.849  50.650  1.00  0.00     0.074 C 
HETATM    5  C14 UNL     1      25.120   3.501  49.969  1.00  0.00    -0.065 C 
HETATM    6  C15 UNL     1      24.278   4.016  49.403  1.00  0.00    -0.013 C 
HETATM    7  S2  UNL     1      22.980   4.773  48.536  1.00  0.00     0.006 SA
HETATM    8  N2  UNL     1      21.582   3.599  48.617  1.00  0.00    -0.233 NA
HETATM    9  C16 UNL     1      21.680   2.855  49.722  1.00  0.00     0.324 C 
HETATM   10  N3  UNL     1      21.955   2.200  50.895  1.00  0.00    -0.360 N 
HETATM   11  H15 UNL     1      21.008   2.475  51.287  1.00  0.00     0.165 HD
ENDROOT
BRANCH   3  12
HETATM   12  C6  UNL     1      26.696   1.187  52.125  1.00  0.00    -0.026 A 
HETATM   13  C7  UNL     1      27.728   1.790  52.753  1.00  0.00     0.015 A 
HETATM   14  C8  UNL     1      28.641   0.981  53.387  1.00  0.00     0.040 A 
HETATM   15  C9  UNL     1      28.581  -0.387  53.430  1.00  0.00     0.105 A 
HETATM   16  C10 UNL     1      27.511  -0.995  52.779  1.00  0.00     0.105 A 
HETATM   17  O2  UNL     1      29.369  -1.401  53.995  1.00  0.00    -0.323 OA
HETATM   18  C11 UNL     1      26.593  -0.187  52.140  1.00  0.00     0.051 A 
HETATM   19  O1  UNL     1      27.699  -2.353  52.981  1.00  0.00    -0.323 OA
HETATM   20  C12 UNL     1      29.061  -2.600  53.309  1.00  0.00     0.352 C 
ENDBRANCH   3  12
BRANCH   1  21
HETATM   21  C2  UNL     1      22.202   0.422  52.237  1.00  0.00     0.152 C 
BRANCH  21  22
HETATM   22  N1  UNL     1      21.070   0.973  52.897  1.00  0.00    -0.263 NA
HETATM   23  H4  UNL     1      21.187   1.978  53.123  1.00  0.00     0.135 HD
BRANCH  22  24
HETATM   24  S1  UNL     1      20.724  -0.012  54.318  1.00  0.00    -0.089 SA
HETATM   25  C1  UNL     1      22.198  -0.940  54.836  1.00  0.00     0.108 C 
ENDBRANCH  22  24
ENDBRANCH  21  22
ENDBRANCH   1  21
TORSDOF 4
ENDMDL
MODEL 6
REMARK VINA RESULT:      -7.6      2.008      2.571
REMARK  4 active torsions:
REMARK  status: ('A' for Active; 'I' for Inactive)
REMARK    1  A    between atoms: S1_2  and  N1_3 
REMARK    2  A    between atoms: N1_3  and  C2_4 
REMARK    3  A    between atoms: C2_4  and  C3_5 
REMARK    4  A    between atoms: C5_7  and  C6_8 
ROOT
HETATM    1  C3  UNL     1      25.639   2.528  51.871  1.00  0.00     0.010 C 
HETATM    2  C4  UNL     1      24.891   1.638  52.523  1.00  0.00     0.081 C 
HETATM    3  C5  UNL     1      23.588   1.048  52.734  1.00  0.00    -0.029 C 
HETATM    4  C13 UNL     1      23.779   0.124  53.653  1.00  0.00     0.074 C 
HETATM    5  C14 UNL     1      25.117   0.087  54.031  1.00  0.00    -0.065 C 
HETATM    6  C15 UNL     1      26.217   0.054  54.319  1.00  0.00    -0.013 C 
HETATM    7  S2  UNL     1      27.902   0.008  54.728  1.00  0.00     0.006 SA
HETATM    8  N2  UNL     1      28.766   0.849  53.355  1.00  0.00    -0.233 NA
HETATM    9  C16 UNL     1      27.950   1.741  52.786  1.00  0.00     0.324 C 
HETATM   10  N3  UNL     1      26.972   2.594  52.344  1.00  0.00    -0.360 N 
HETATM   11  H15 UNL     1      27.606   3.429  52.503  1.00  0.00     0.165 HD
ENDROOT
BRANCH   3  12
HETATM   12  C6  UNL     1      22.198   1.099  52.314  1.00  0.00    -0.026 A 
HETATM   13  C7  UNL     1      21.544   0.077  51.722  1.00  0.00     0.015 A 
HETATM   14  C8  UNL     1      20.228   0.282  51.383  1.00  0.00     0.040 A 
HETATM   15  C9  UNL     1      19.533   1.442  51.599  1.00  0.00     0.105 A 
HETATM   16  C10 UNL     1      20.220   2.488  52.210  1.00  0.00     0.105 A 
HETATM   17  O2  UNL     1      18.224   1.881  51.350  1.00  0.00    -0.323 OA
HETATM   18  C11 UNL     1      21.542   2.287  52.552  1.00  0.00     0.051 A 
HETATM   19  O1  UNL     1      19.293   3.514  52.304  1.00  0.00    -0.323 OA
HETATM   20  C12 UNL     1      18.247   3.295  51.365  1.00  0.00     0.352 C 
ENDBRANCH   3  12
BRANCH   1  21
HETATM   21  C2  UNL     1      25.690   3.625  50.821  1.00  0.00     0.152 C 
BRANCH  21  22
HETATM   22  N1  UNL     1      26.947   3.712  50.164  1.00  0.00    -0.263 NA
HETATM   23  H4  UNL     1      27.739   3.815  50.826  1.00  0.00     0.135 HD
BRANCH  22  24
HETATM   24  S1  UNL     1      26.866   5.023  48.987  1.00  0.00    -0.089 SA
HETATM   25  C1  UNL     1      25.178   5.686  48.873  1.00  0.00     0.108 C 
ENDBRANCH  22  24
ENDBRANCH  21  22
ENDBRANCH   1  21
TORSDOF 4
ENDMDL
MODEL 7
REMARK VINA RESULT:      -7.3      7.453     10.762
REMARK  4 active torsions:
REMARK  status: ('A' for Active; 'I' for Inactive)
REMARK    1  A    between atoms: S1_2  and  N1_3 
REMARK    2  A    between atoms: N1_3  and  C2_4 
REMARK    3  A    between atoms: C2_4  and  C3_5 
REMARK    4  A    between atoms: C5_7  and  C6_8 
ROOT
HETATM    1  C3  UNL     1      25.969   7.743  49.855  1.00  0.00     0.010 C 
HETATM    2  C4  UNL     1      26.574   6.666  49.357  1.00  0.00     0.081 C 
HETATM    3  C5  UNL     1      27.676   6.115  48.598  1.00  0.00    -0.029 C 
HETATM    4  C13 UNL     1      27.476   4.813  48.606  1.00  0.00     0.074 C 
HETATM    5  C14 UNL     1      26.325   4.505  49.324  1.00  0.00    -0.065 C 
HETATM    6  C15 UNL     1      25.392   4.264  49.928  1.00  0.00    -0.013 C 
HETATM    7  S2  UNL     1      23.977   3.918  50.870  1.00  0.00     0.006 SA
HETATM    8  N2  UNL     1      23.685   5.408  51.887  1.00  0.00    -0.233 NA
HETATM    9  C16 UNL     1      24.171   6.484  51.261  1.00  0.00     0.324 C 
HETATM   10  N3  UNL     1      24.726   7.455  50.469  1.00  0.00    -0.360 N 
HETATM   11  H15 UNL     1      23.807   7.983  50.445  1.00  0.00     0.165 HD
ENDROOT
BRANCH   3  12
HETATM   12  C6  UNL     1      28.880   6.463  47.864  1.00  0.00    -0.026 A 
HETATM   13  C7  UNL     1      28.943   7.425  46.918  1.00  0.00     0.015 A 
HETATM   14  C8  UNL     1      30.160   7.636  46.314  1.00  0.00     0.040 A 
HETATM   15  C9  UNL     1      31.308   6.945  46.597  1.00  0.00     0.105 A 
HETATM   16  C10 UNL     1      31.227   5.956  47.574  1.00  0.00     0.105 A 
HETATM   17  O2  UNL     1      32.630   6.976  46.129  1.00  0.00    -0.323 OA
HETATM   18  C11 UNL     1      30.008   5.741  48.184  1.00  0.00     0.051 A 
HETATM   19  O1  UNL     1      32.508   5.433  47.654  1.00  0.00    -0.323 OA
HETATM   20  C12 UNL     1      33.219   5.732  46.459  1.00  0.00     0.352 C 
ENDBRANCH   3  12
BRANCH   1  21
HETATM   21  C2  UNL     1      25.984   9.254  50.013  1.00  0.00     0.152 C 
BRANCH  21  22
HETATM   22  N1  UNL     1      27.207   9.749  50.544  1.00  0.00    -0.263 NA
HETATM   23  H4  UNL     1      27.066  10.515  51.228  1.00  0.00     0.135 HD
BRANCH  22  24
HETATM   24  S1  UNL     1      28.244  10.217  49.197  1.00  0.00    -0.089 SA
HETATM   25  C1  UNL     1      29.963   9.710  49.498  1.00  0.00     0.108 C 
ENDBRANCH  22  24
ENDBRANCH  21  22
ENDBRANCH   1  21
TORSDOF 4
ENDMDL
MODEL 8
REMARK VINA RESULT:      -7.2      4.198      6.769
REMARK  4 active torsions:
REMARK  status: ('A' for Active; 'I' for Inactive)
REMARK    1  A    between atoms: S1_2  and  N1_3 
REMARK    2  A    between atoms: N1_3  and  C2_4 
REMARK    3  A    between atoms: C2_4  and  C3_5 
REMARK    4  A    between atoms: C5_7  and  C6_8 
ROOT
HETATM    1  C3  UNL     1      21.022   2.420  52.278  1.00  0.00     0.010 C 
HETATM    2  C4  UNL     1      22.280   2.854  52.219  1.00  0.00     0.081 C 
HETATM    3  C5  UNL     1      23.684   2.588  52.444  1.00  0.00    -0.029 C 
HETATM    4  C13 UNL     1      24.303   3.684  52.055  1.00  0.00     0.074 C 
HETATM    5  C14 UNL     1      23.385   4.621  51.595  1.00  0.00    -0.065 C 
HETATM    6  C15 UNL     1      22.626   5.373  51.204  1.00  0.00    -0.013 C 
HETATM    7  S2  UNL     1      21.452   6.495  50.595  1.00  0.00     0.006 SA
HETATM    8  N2  UNL     1      19.958   5.505  50.241  1.00  0.00    -0.233 NA
HETATM    9  C16 UNL     1      19.924   4.436  51.042  1.00  0.00     0.324 C 
HETATM   10  N3  UNL     1      20.069   3.413  51.942  1.00  0.00    -0.360 N 
HETATM   11  H15 UNL     1      19.127   3.638  52.373  1.00  0.00     0.165 HD
ENDROOT
BRANCH   3  12
HETATM   12  C6  UNL     1      24.623   1.587  52.919  1.00  0.00    -0.026 A 
HETATM   13  C7  UNL     1      24.370   0.261  52.954  1.00  0.00     0.015 A 
HETATM   14  C8  UNL     1      25.365  -0.559  53.432  1.00  0.00     0.040 A 
HETATM   15  C9  UNL     1      26.589  -0.133  53.874  1.00  0.00     0.105 A 
HETATM   16  C10 UNL     1      26.836   1.237  53.832  1.00  0.00     0.105 A 
HETATM   17  O2  UNL     1      27.733  -0.757  54.392  1.00  0.00    -0.323 OA
HETATM   18  C11 UNL     1      25.840   2.064  53.353  1.00  0.00     0.051 A 
HETATM   19  O1  UNL     1      28.123   1.380  54.326  1.00  0.00    -0.323 OA
HETATM   20  C12 UNL     1      28.468   0.230  55.090  1.00  0.00     0.352 C 
ENDBRANCH   3  12
BRANCH   1  21
HETATM   21  C2  UNL     1      20.083   1.279  52.632  1.00  0.00     0.152 C 
BRANCH  21  22
HETATM   22  N1  UNL     1      20.534   0.017  52.160  1.00  0.00    -0.263 NA
HETATM   23  H4  UNL     1      19.889  -0.408  51.468  1.00  0.00     0.135 HD
BRANCH  22  24
HETATM   24  S1  UNL     1      20.821  -1.024  53.555  1.00  0.00    -0.089 SA
HETATM   25  C1  UNL     1      21.291  -0.041  55.010  1.00  0.00     0.108 C 
ENDBRANCH  22  24
ENDBRANCH  21  22
ENDBRANCH   1  21
TORSDOF 4
ENDMDL
MODEL 9
REMARK VINA RESULT:      -6.9      7.237      9.498
REMARK  4 active torsions:
REMARK  status: ('A' for Active; 'I' for Inactive)
REMARK    1  A    between atoms: S1_2  and  N1_3 
REMARK    2  A    between atoms: N1_3  and  C2_4 
REMARK    3  A    between atoms: C2_4  and  C3_5 
REMARK    4  A    between atoms: C5_7  and  C6_8 
ROOT
HETATM    1  C3  UNL     1      30.895   8.225  48.936  1.00  0.00     0.010 C 
HETATM    2  C4  UNL     1      30.468   7.032  48.526  1.00  0.00     0.081 C 
HETATM    3  C5  UNL     1      29.358   6.126  48.325  1.00  0.00    -0.029 C 
HETATM    4  C13 UNL     1      29.895   5.041  47.805  1.00  0.00     0.074 C 
HETATM    5  C14 UNL     1      31.268   5.205  47.659  1.00  0.00    -0.065 C 
HETATM    6  C15 UNL     1      32.388   5.357  47.527  1.00  0.00    -0.013 C 
HETATM    7  S2  UNL     1      34.090   5.618  47.318  1.00  0.00     0.006 SA
HETATM    8  N2  UNL     1      34.323   7.429  47.385  1.00  0.00    -0.233 NA
HETATM    9  C16 UNL     1      33.362   7.981  48.131  1.00  0.00     0.324 C 
HETATM   10  N3  UNL     1      32.305   8.352  48.920  1.00  0.00    -0.360 N 
HETATM   11  H15 UNL     1      32.963   8.811  49.613  1.00  0.00     0.165 HD
ENDROOT
BRANCH   3  12
HETATM   12  C6  UNL     1      27.920   5.986  48.478  1.00  0.00    -0.026 A 
HETATM   13  C7  UNL     1      27.030   6.974  48.245  1.00  0.00     0.015 A 
HETATM   14  C8  UNL     1      25.700   6.682  48.435  1.00  0.00     0.040 A 
HETATM   15  C9  UNL     1      25.212   5.468  48.841  1.00  0.00     0.105 A 
HETATM   16  C10 UNL     1      26.142   4.459  49.078  1.00  0.00     0.105 A 
HETATM   17  O2  UNL     1      23.937   4.942  49.098  1.00  0.00    -0.323 OA
HETATM   18  C11 UNL     1      27.478   4.747  48.889  1.00  0.00     0.051 A 
HETATM   19  O1  UNL     1      25.385   3.365  49.467  1.00  0.00    -0.323 OA
HETATM   20  C12 UNL     1      24.112   3.806  49.924  1.00  0.00     0.352 C 
ENDBRANCH   3  12
BRANCH   1  21
HETATM   21  C2  UNL     1      30.526   9.581  49.516  1.00  0.00     0.152 C 
BRANCH  21  22
HETATM   22  N1  UNL     1      29.169   9.659  49.933  1.00  0.00    -0.263 NA
HETATM   23  H4  UNL     1      28.710   8.731  49.981  1.00  0.00     0.135 HD
BRANCH  22  24
HETATM   24  S1  UNL     1      28.328  10.785  48.869  1.00  0.00    -0.089 SA
HETATM   25  C1  UNL     1      28.425  10.237  47.139  1.00  0.00     0.108 C 
ENDBRANCH  22  24
ENDBRANCH  21  22
ENDBRANCH   1  21
TORSDOF 4
ENDMDL
