MODEL 1
REMARK VINA RESULT:      -8.7      0.000      0.000
REMARK  4 active torsions:
REMARK  status: ('A' for Active; 'I' for Inactive)
REMARK    1  A    between atoms: C2_2  and  O1_3 
REMARK    2  A    between atoms: C9_10  and  N1_11 
REMARK    3  A    between atoms: C11_13  and  C12_14 
REMARK    4  A    between atoms: C12_14  and  C13_15 
ROOT
HETATM    1  C1  UNL     1      20.563   1.592  51.027  1.00  0.00     0.076 C 
HETATM    2  C2  UNL     1      21.763   0.915  51.525  1.00  0.00     0.048 C 
HETATM    3  C3  UNL     1      21.667  -0.015  52.472  1.00  0.00    -0.000 C 
HETATM    4  C4  UNL     1      20.417  -0.447  53.092  1.00  0.00     0.013 C 
HETATM    5  C5  UNL     1      20.693  -1.076  54.239  1.00  0.00     0.010 C 
HETATM    6  C6  UNL     1      22.155  -1.079  54.416  1.00  0.00    -0.032 C 
HETATM    7  C7  UNL     1      23.036  -1.258  55.393  1.00  0.00    -0.010 C 
HETATM    8  C8  UNL     1      24.511  -1.182  55.178  1.00  0.00     0.105 C 
HETATM    9  C9  UNL     1      24.841  -0.175  54.163  1.00  0.00     0.103 C 
HETATM   10  N3  UNL     1      23.992  -0.035  53.205  1.00  0.00    -0.262 NA
HETATM   11  C17 UNL     1      22.776  -0.795  53.088  1.00  0.00     0.178 C 
ENDROOT
BRANCH   9  12
HETATM   12  N1  UNL     1      26.040   0.587  54.261  1.00  0.00    -0.339 N 
HETATM   13  C10 UNL     1      27.221  -0.040  54.872  1.00  0.00     0.163 C 
HETATM   14  C11 UNL     1      28.354  -0.034  53.905  1.00  0.00    -0.035 C 
HETATM   15  C14 UNL     1      28.295   0.903  52.974  1.00  0.00     0.142 C 
HETATM   16  O2  UNL     1      27.303   1.859  52.811  1.00  0.00    -0.338 OA
HETATM   17  C15 UNL     1      26.320   1.940  53.846  1.00  0.00     0.225 C 
HETATM   18  C16 UNL     1      25.101   2.698  53.386  1.00  0.00     0.063 C 
BRANCH  14  19
HETATM   19  C12 UNL     1      29.471  -1.009  53.979  1.00  0.00     0.083 C 
BRANCH  19  20
HETATM   20  C13 UNL     1      29.178  -2.048  52.941  1.00  0.00     0.084 C 
HETATM   21  N2  UNL     1      28.659  -3.155  53.380  1.00  0.00    -0.316 NA
HETATM   22  H15 UNL     1      28.498  -3.206  54.411  1.00  0.00     0.185 HD
ENDBRANCH  19  20
ENDBRANCH  14  19
ENDBRANCH   9  12
BRANCH   2  23
HETATM   23  O1  UNL     1      23.035   1.227  51.022  1.00  0.00    -0.365 OA
HETATM   24  H4  UNL     1      23.190   1.876  50.262  1.00  0.00     0.217 HD
ENDBRANCH   2  23
TORSDOF 4
ENDMDL
MODEL 2
REMARK VINA RESULT:      -8.0      2.007      3.577
REMARK  4 active torsions:
REMARK  status: ('A' for Active; 'I' for Inactive)
REMARK    1  A    between atoms: C2_2  and  O1_3 
REMARK    2  A    between atoms: C9_10  and  N1_11 
REMARK    3  A    between atoms: C11_13  and  C12_14 
REMARK    4  A    between atoms: C12_14  and  C13_15 
ROOT
HETATM    1  C1  UNL     1      23.635   5.566  51.997  1.00  0.00     0.076 C 
HETATM    2  C2  UNL     1      23.734   4.109  51.889  1.00  0.00     0.048 C 
HETATM    3  C3  UNL     1      22.636   3.357  51.900  1.00  0.00    -0.000 C 
HETATM    4  C4  UNL     1      21.274   3.872  52.015  1.00  0.00     0.013 C 
HETATM    5  C5  UNL     1      20.461   2.878  52.386  1.00  0.00     0.010 C 
HETATM    6  C6  UNL     1      21.272   1.657  52.531  1.00  0.00    -0.032 C 
HETATM    7  C7  UNL     1      21.177   0.466  53.109  1.00  0.00    -0.010 C 
HETATM    8  C8  UNL     1      22.258  -0.561  53.033  1.00  0.00     0.105 C 
HETATM    9  C9  UNL     1      23.582   0.072  53.031  1.00  0.00     0.103 C 
HETATM   10  N3  UNL     1      23.665   1.213  52.439  1.00  0.00    -0.262 NA
HETATM   11  C17 UNL     1      22.557   1.873  51.801  1.00  0.00     0.178 C 
ENDROOT
BRANCH   9  12
HETATM   12  N1  UNL     1      24.691  -0.564  53.657  1.00  0.00    -0.339 N 
HETATM   13  C10 UNL     1      25.967  -0.623  52.929  1.00  0.00     0.163 C 
HETATM   14  C11 UNL     1      27.037   0.036  53.728  1.00  0.00    -0.035 C 
HETATM   15  C14 UNL     1      26.822   0.076  55.032  1.00  0.00     0.142 C 
HETATM   16  O2  UNL     1      25.722  -0.424  55.714  1.00  0.00    -0.338 OA
HETATM   17  C15 UNL     1      24.795  -1.197  54.949  1.00  0.00     0.225 C 
HETATM   18  C16 UNL     1      23.475  -1.336  55.664  1.00  0.00     0.063 C 
BRANCH  14  19
HETATM   19  C12 UNL     1      28.258   0.608  53.109  1.00  0.00     0.083 C 
BRANCH  19  20
HETATM   20  C13 UNL     1      28.148   2.091  53.278  1.00  0.00     0.084 C 
HETATM   21  N2  UNL     1      27.820   2.760  52.213  1.00  0.00    -0.316 NA
HETATM   22  H15 UNL     1      27.666   2.194  51.349  1.00  0.00     0.185 HD
ENDBRANCH  19  20
ENDBRANCH  14  19
ENDBRANCH   9  12
BRANCH   2  23
HETATM   23  O1  UNL     1      24.979   3.471  51.773  1.00  0.00    -0.365 OA
HETATM   24  H4  UNL     1      25.398   2.929  52.517  1.00  0.00     0.217 HD
ENDBRANCH   2  23
TORSDOF 4
ENDMDL
MODEL 3
REMARK VINA RESULT:      -7.9      3.017      5.001
REMARK  4 active torsions:
REMARK  status: ('A' for Active; 'I' for Inactive)
REMARK    1  A    between atoms: C2_2  and  O1_3 
REMARK    2  A    between atoms: C9_10  and  N1_11 
REMARK    3  A    between atoms: C11_13  and  C12_14 
REMARK    4  A    between atoms: C12_14  and  C13_15 
ROOT
HETATM    1  C1  UNL     1      27.388   5.296  48.789  1.00  0.00     0.076 C 
HETATM    2  C2  UNL     1      26.559   4.206  49.308  1.00  0.00     0.048 C 
HETATM    3  C3  UNL     1      25.403   4.468  49.913  1.00  0.00    -0.000 C 
HETATM    4  C4  UNL     1      24.856   5.806  50.120  1.00  0.00     0.013 C 
HETATM    5  C5  UNL     1      23.921   5.754  51.073  1.00  0.00     0.010 C 
HETATM    6  C6  UNL     1      23.820   4.359  51.535  1.00  0.00    -0.032 C 
HETATM    7  C7  UNL     1      23.344   3.691  52.579  1.00  0.00    -0.010 C 
HETATM    8  C8  UNL     1      23.428   2.205  52.698  1.00  0.00     0.105 C 
HETATM    9  C9  UNL     1      24.668   1.702  52.097  1.00  0.00     0.103 C 
HETATM   10  N3  UNL     1      25.101   2.341  51.066  1.00  0.00    -0.262 NA
HETATM   11  C17 UNL     1      24.445   3.487  50.496  1.00  0.00     0.178 C 
ENDROOT
BRANCH   9  12
HETATM   12  N1  UNL     1      25.333   0.569  52.647  1.00  0.00    -0.339 N 
HETATM   13  C10 UNL     1      26.768   0.398  52.375  1.00  0.00     0.163 C 
HETATM   14  C11 UNL     1      27.523   0.344  53.658  1.00  0.00    -0.035 C 
HETATM   15  C14 UNL     1      26.821  -0.045  54.709  1.00  0.00     0.142 C 
HETATM   16  O2  UNL     1      25.479  -0.400  54.734  1.00  0.00    -0.338 OA
HETATM   17  C15 UNL     1      24.824  -0.502  53.468  1.00  0.00     0.225 C 
HETATM   18  C16 UNL     1      23.325  -0.487  53.624  1.00  0.00     0.063 C 
BRANCH  14  19
HETATM   19  C12 UNL     1      28.960   0.701  53.754  1.00  0.00     0.083 C 
BRANCH  19  20
HETATM   20  C13 UNL     1      29.000   2.170  54.043  1.00  0.00     0.084 C 
HETATM   21  N2  UNL     1      29.042   2.950  53.004  1.00  0.00    -0.316 NA
HETATM   22  H15 UNL     1      29.043   2.473  52.076  1.00  0.00     0.185 HD
ENDBRANCH  19  20
ENDBRANCH  14  19
ENDBRANCH   9  12
BRANCH   2  23
HETATM   23  O1  UNL     1      26.958   2.866  49.183  1.00  0.00    -0.365 OA
HETATM   24  H4  UNL     1      27.581   2.407  49.834  1.00  0.00     0.217 HD
ENDBRANCH   2  23
TORSDOF 4
ENDMDL
MODEL 4
REMARK VINA RESULT:      -7.6      3.627      6.292
REMARK  4 active torsions:
REMARK  status: ('A' for Active; 'I' for Inactive)
REMARK    1  A    between atoms: C2_2  and  O1_3 
REMARK    2  A    between atoms: C9_10  and  N1_11 
REMARK    3  A    between atoms: C11_13  and  C12_14 
REMARK    4  A    between atoms: C12_14  and  C13_15 
ROOT
HETATM    1  C1  UNL     1      22.347  -1.041  54.874  1.00  0.00     0.076 C 
HETATM    2  C2  UNL     1      22.820  -0.408  53.642  1.00  0.00     0.048 C 
HETATM    3  C3  UNL     1      24.123  -0.236  53.430  1.00  0.00    -0.000 C 
HETATM    4  C4  UNL     1      25.178  -0.639  54.356  1.00  0.00     0.013 C 
HETATM    5  C5  UNL     1      26.304   0.010  54.045  1.00  0.00     0.010 C 
HETATM    6  C6  UNL     1      26.025   0.877  52.887  1.00  0.00    -0.032 C 
HETATM    7  C7  UNL     1      26.561   1.932  52.285  1.00  0.00    -0.010 C 
HETATM    8  C8  UNL     1      25.961   2.565  51.073  1.00  0.00     0.105 C 
HETATM    9  C9  UNL     1      24.497   2.500  51.120  1.00  0.00     0.103 C 
HETATM   10  N3  UNL     1      23.991   1.456  51.679  1.00  0.00    -0.262 NA
HETATM   11  C17 UNL     1      24.771   0.386  52.241  1.00  0.00     0.178 C 
ENDROOT
BRANCH   9  12
HETATM   12  N1  UNL     1      23.707   3.549  50.569  1.00  0.00    -0.339 N 
HETATM   13  C10 UNL     1      23.641   4.829  51.291  1.00  0.00     0.163 C 
HETATM   14  C11 UNL     1      24.115   5.932  50.409  1.00  0.00    -0.035 C 
HETATM   15  C14 UNL     1      24.012   5.700  49.112  1.00  0.00     0.142 C 
HETATM   16  O2  UNL     1      23.518   4.555  48.503  1.00  0.00    -0.338 OA
HETATM   17  C15 UNL     1      22.916   3.586  49.363  1.00  0.00     0.225 C 
HETATM   18  C16 UNL     1      22.791   2.249  48.680  1.00  0.00     0.063 C 
BRANCH  14  19
HETATM   19  C12 UNL     1      24.664   7.202  50.946  1.00  0.00     0.083 C 
BRANCH  19  20
HETATM   20  C13 UNL     1      25.861   7.519  50.105  1.00  0.00     0.084 C 
HETATM   21  N2  UNL     1      26.711   8.357  50.622  1.00  0.00    -0.316 NA
HETATM   22  H15 UNL     1      26.471   8.722  51.571  1.00  0.00     0.185 HD
ENDBRANCH  19  20
ENDBRANCH  14  19
ENDBRANCH   9  12
BRANCH   2  23
HETATM   23  O1  UNL     1      21.921   0.033  52.658  1.00  0.00    -0.365 OA
HETATM   24  H4  UNL     1      21.093  -0.483  52.390  1.00  0.00     0.217 HD
ENDBRANCH   2  23
TORSDOF 4
ENDMDL
MODEL 5
REMARK VINA RESULT:      -7.5      3.572      6.694
REMARK  4 active torsions:
REMARK  status: ('A' for Active; 'I' for Inactive)
REMARK    1  A    between atoms: C2_2  and  O1_3 
REMARK    2  A    between atoms: C9_10  and  N1_11 
REMARK    3  A    between atoms: C11_13  and  C12_14 
REMARK    4  A    between atoms: C12_14  and  C13_15 
ROOT
HETATM    1  C1  UNL     1      27.159   0.801  52.402  1.00  0.00     0.076 C 
HETATM    2  C2  UNL     1      25.924   1.588  52.394  1.00  0.00     0.048 C 
HETATM    3  C3  UNL     1      24.785   1.060  52.835  1.00  0.00    -0.000 C 
HETATM    4  C4  UNL     1      24.643  -0.298  53.353  1.00  0.00     0.013 C 
HETATM    5  C5  UNL     1      23.351  -0.639  53.336  1.00  0.00     0.010 C 
HETATM    6  C6  UNL     1      22.587   0.499  52.797  1.00  0.00    -0.032 C 
HETATM    7  C7  UNL     1      21.391   0.731  52.270  1.00  0.00    -0.010 C 
HETATM    8  C8  UNL     1      20.953   2.085  51.819  1.00  0.00     0.105 C 
HETATM    9  C9  UNL     1      22.080   2.842  51.265  1.00  0.00     0.103 C 
HETATM   10  N3  UNL     1      23.229   2.630  51.807  1.00  0.00    -0.262 NA
HETATM   11  C17 UNL     1      23.449   1.715  52.895  1.00  0.00     0.178 C 
ENDROOT
BRANCH   9  12
HETATM   12  N1  UNL     1      21.883   3.753  50.188  1.00  0.00    -0.339 N 
HETATM   13  C10 UNL     1      21.469   5.129  50.502  1.00  0.00     0.163 C 
HETATM   14  C11 UNL     1      22.465   6.093  49.957  1.00  0.00    -0.035 C 
HETATM   15  C14 UNL     1      23.180   5.650  48.938  1.00  0.00     0.142 C 
HETATM   16  O2  UNL     1      23.097   4.401  48.338  1.00  0.00    -0.338 OA
HETATM   17  C15 UNL     1      22.024   3.559  48.766  1.00  0.00     0.225 C 
HETATM   18  C16 UNL     1      22.262   2.124  48.370  1.00  0.00     0.063 C 
BRANCH  14  19
HETATM   19  C12 UNL     1      22.644   7.456  50.517  1.00  0.00     0.083 C 
BRANCH  19  20
HETATM   20  C13 UNL     1      24.081   7.545  50.929  1.00  0.00     0.084 C 
HETATM   21  N2  UNL     1      24.391   6.935  52.034  1.00  0.00    -0.316 NA
HETATM   22  H15 UNL     1      23.608   6.445  52.520  1.00  0.00     0.185 HD
ENDBRANCH  19  20
ENDBRANCH  14  19
ENDBRANCH   9  12
BRANCH   2  23
HETATM   23  O1  UNL     1      25.908   2.910  51.922  1.00  0.00    -0.365 OA
HETATM   24  H4  UNL     1      26.538   3.628  52.256  1.00  0.00     0.217 HD
ENDBRANCH   2  23
TORSDOF 4
ENDMDL
MODEL 6
REMARK VINA RESULT:      -7.4      2.314      4.054
REMARK  4 active torsions:
REMARK  status: ('A' for Active; 'I' for Inactive)
REMARK    1  A    between atoms: C2_2  and  O1_3 
REMARK    2  A    between atoms: C9_10  and  N1_11 
REMARK    3  A    between atoms: C11_13  and  C12_14 
REMARK    4  A    between atoms: C12_14  and  C13_15 
ROOT
HETATM    1  C1  UNL     1      21.161   2.129  47.861  1.00  0.00     0.076 C 
HETATM    2  C2  UNL     1      21.566   1.881  49.246  1.00  0.00     0.048 C 
HETATM    3  C3  UNL     1      21.855   2.897  50.056  1.00  0.00    -0.000 C 
HETATM    4  C4  UNL     1      21.805   4.306  49.675  1.00  0.00     0.013 C 
HETATM    5  C5  UNL     1      22.511   5.022  50.554  1.00  0.00     0.010 C 
HETATM    6  C6  UNL     1      23.060   4.095  51.559  1.00  0.00    -0.032 C 
HETATM    7  C7  UNL     1      24.019   4.082  52.478  1.00  0.00    -0.010 C 
HETATM    8  C8  UNL     1      24.288   2.901  53.350  1.00  0.00     0.105 C 
HETATM    9  C9  UNL     1      24.045   1.648  52.626  1.00  0.00     0.103 C 
HETATM   10  N3  UNL     1      23.092   1.668  51.761  1.00  0.00    -0.262 NA
HETATM   11  C17 UNL     1      22.281   2.823  51.481  1.00  0.00     0.178 C 
ENDROOT
BRANCH   9  12
HETATM   12  N1  UNL     1      24.837   0.494  52.888  1.00  0.00    -0.339 N 
HETATM   13  C10 UNL     1      26.180   0.417  52.294  1.00  0.00     0.163 C 
HETATM   14  C11 UNL     1      27.199   0.261  53.369  1.00  0.00    -0.035 C 
HETATM   15  C14 UNL     1      26.754  -0.267  54.496  1.00  0.00     0.142 C 
HETATM   16  O2  UNL     1      25.458  -0.682  54.771  1.00  0.00    -0.338 OA
HETATM   17  C15 UNL     1      24.543  -0.679  53.674  1.00  0.00     0.225 C 
HETATM   18  C16 UNL     1      23.115  -0.746  54.152  1.00  0.00     0.063 C 
BRANCH  14  19
HETATM   19  C12 UNL     1      28.615   0.669  53.191  1.00  0.00     0.083 C 
BRANCH  19  20
HETATM   20  C13 UNL     1      28.679   2.113  53.583  1.00  0.00     0.084 C 
HETATM   21  N2  UNL     1      29.592   2.423  54.455  1.00  0.00    -0.316 NA
HETATM   22  H15 UNL     1      30.187   1.634  54.792  1.00  0.00     0.185 HD
ENDBRANCH  19  20
ENDBRANCH  14  19
ENDBRANCH   9  12
BRANCH   2  23
HETATM   23  O1  UNL     1      21.660   0.576  49.754  1.00  0.00    -0.365 OA
HETATM   24  H4  UNL     1      21.999  -0.209  49.213  1.00  0.00     0.217 HD
ENDBRANCH   2  23
TORSDOF 4
ENDMDL
MODEL 7
REMARK VINA RESULT:      -7.1      3.824      4.654
REMARK  4 active torsions:
REMARK  status: ('A' for Active; 'I' for Inactive)
REMARK    1  A    between atoms: C2_2  and  O1_3 
REMARK    2  A    between atoms: C9_10  and  N1_11 
REMARK    3  A    between atoms: C11_13  and  C12_14 
REMARK    4  A    between atoms: C12_14  and  C13_15 
ROOT
HETATM    1  C1  UNL     1      18.048   1.902  49.574  1.00  0.00     0.076 C 
HETATM    2  C2  UNL     1      19.477   1.758  49.863  1.00  0.00     0.048 C 
HETATM    3  C3  UNL     1      19.893   0.905  50.796  1.00  0.00    -0.000 C 
HETATM    4  C4  UNL     1      19.016   0.056  51.599  1.00  0.00     0.013 C 
HETATM    5  C5  UNL     1      19.685  -0.367  52.676  1.00  0.00     0.010 C 
HETATM    6  C6  UNL     1      21.044   0.197  52.618  1.00  0.00    -0.032 C 
HETATM    7  C7  UNL     1      22.065   0.413  53.440  1.00  0.00    -0.010 C 
HETATM    8  C8  UNL     1      23.346   1.038  52.994  1.00  0.00     0.105 C 
HETATM    9  C9  UNL     1      23.103   2.047  51.958  1.00  0.00     0.103 C 
HETATM   10  N3  UNL     1      22.129   1.809  51.149  1.00  0.00    -0.262 NA
HETATM   11  C17 UNL     1      21.297   0.637  51.213  1.00  0.00     0.178 C 
ENDROOT
BRANCH   9  12
HETATM   12  N1  UNL     1      23.915   3.214  51.878  1.00  0.00    -0.339 N 
HETATM   13  C10 UNL     1      25.337   3.054  51.538  1.00  0.00     0.163 C 
HETATM   14  C11 UNL     1      25.654   3.837  50.310  1.00  0.00    -0.035 C 
HETATM   15  C14 UNL     1      24.848   4.855  50.067  1.00  0.00     0.142 C 
HETATM   16  O2  UNL     1      23.758   5.259  50.826  1.00  0.00    -0.338 OA
HETATM   17  C15 UNL     1      23.577   4.601  52.081  1.00  0.00     0.225 C 
HETATM   18  C16 UNL     1      22.184   4.813  52.615  1.00  0.00     0.063 C 
BRANCH  14  19
HETATM   19  C12 UNL     1      26.794   3.498  49.421  1.00  0.00     0.083 C 
BRANCH  19  20
HETATM   20  C13 UNL     1      27.217   4.787  48.788  1.00  0.00     0.084 C 
HETATM   21  N2  UNL     1      28.471   5.102  48.927  1.00  0.00    -0.316 NA
HETATM   22  H15 UNL     1      29.054   4.423  49.465  1.00  0.00     0.185 HD
ENDBRANCH  19  20
ENDBRANCH  14  19
ENDBRANCH   9  12
BRANCH   2  23
HETATM   23  O1  UNL     1      20.438   2.511  49.170  1.00  0.00    -0.365 OA
HETATM   24  H4  UNL     1      21.130   3.087  49.629  1.00  0.00     0.217 HD
ENDBRANCH   2  23
TORSDOF 4
ENDMDL
MODEL 8
REMARK VINA RESULT:      -7.1      3.738      7.180
REMARK  4 active torsions:
REMARK  status: ('A' for Active; 'I' for Inactive)
REMARK    1  A    between atoms: C2_2  and  O1_3 
REMARK    2  A    between atoms: C9_10  and  N1_11 
REMARK    3  A    between atoms: C11_13  and  C12_14 
REMARK    4  A    between atoms: C12_14  and  C13_15 
ROOT
HETATM    1  C1  UNL     1      23.772   7.769  50.824  1.00  0.00     0.076 C 
HETATM    2  C2  UNL     1      23.878   6.310  50.904  1.00  0.00     0.048 C 
HETATM    3  C3  UNL     1      23.673   5.559  49.824  1.00  0.00    -0.000 C 
HETATM    4  C4  UNL     1      23.336   6.078  48.501  1.00  0.00     0.013 C 
HETATM    5  C5  UNL     1      22.822   5.090  47.762  1.00  0.00     0.010 C 
HETATM    6  C6  UNL     1      22.801   3.869  48.587  1.00  0.00    -0.032 C 
HETATM    7  C7  UNL     1      22.201   2.685  48.591  1.00  0.00    -0.010 C 
HETATM    8  C8  UNL     1      22.446   1.656  49.644  1.00  0.00     0.105 C 
HETATM    9  C9  UNL     1      22.678   2.287  50.948  1.00  0.00     0.103 C 
HETATM   10  N3  UNL     1      23.289   3.420  50.930  1.00  0.00    -0.262 NA
HETATM   11  C17 UNL     1      23.739   4.074  49.730  1.00  0.00     0.178 C 
ENDROOT
BRANCH   9  12
HETATM   12  N1  UNL     1      22.240   1.656  52.147  1.00  0.00    -0.339 N 
HETATM   13  C10 UNL     1      20.802   1.661  52.456  1.00  0.00     0.163 C 
HETATM   14  C11 UNL     1      20.311   0.261  52.598  1.00  0.00    -0.035 C 
HETATM   15  C14 UNL     1      21.232  -0.628  52.927  1.00  0.00     0.142 C 
HETATM   16  O2  UNL     1      22.582  -0.392  53.148  1.00  0.00    -0.338 OA
HETATM   17  C15 UNL     1      22.994   0.976  53.171  1.00  0.00     0.225 C 
HETATM   18  C16 UNL     1      24.487   1.101  53.009  1.00  0.00     0.063 C 
BRANCH  14  19
HETATM   19  C12 UNL     1      18.890  -0.111  52.386  1.00  0.00     0.083 C 
BRANCH  19  20
HETATM   20  C13 UNL     1      18.589  -1.172  53.398  1.00  0.00     0.084 C 
HETATM   21  N2  UNL     1      17.349  -1.251  53.783  1.00  0.00    -0.316 NA
HETATM   22  H15 UNL     1      16.692  -0.567  53.347  1.00  0.00     0.185 HD
ENDBRANCH  19  20
ENDBRANCH  14  19
ENDBRANCH   9  12
BRANCH   2  23
HETATM   23  O1  UNL     1      24.194   5.669  52.112  1.00  0.00    -0.365 OA
HETATM   24  H4  UNL     1      24.777   6.084  52.826  1.00  0.00     0.217 HD
ENDBRANCH   2  23
TORSDOF 4
ENDMDL
MODEL 9
REMARK VINA RESULT:      -6.9      3.399      6.375
REMARK  4 active torsions:
REMARK  status: ('A' for Active; 'I' for Inactive)
REMARK    1  A    between atoms: C2_2  and  O1_3 
REMARK    2  A    between atoms: C9_10  and  N1_11 
REMARK    3  A    between atoms: C11_13  and  C12_14 
REMARK    4  A    between atoms: C12_14  and  C13_15 
ROOT
HETATM    1  C1  UNL     1      24.491  -0.775  54.153  1.00  0.00     0.076 C 
HETATM    2  C2  UNL     1      23.552   0.252  53.696  1.00  0.00     0.048 C 
HETATM    3  C3  UNL     1      22.240   0.040  53.756  1.00  0.00    -0.000 C 
HETATM    4  C4  UNL     1      21.615  -1.181  54.258  1.00  0.00     0.013 C 
HETATM    5  C5  UNL     1      20.352  -1.235  53.826  1.00  0.00     0.010 C 
HETATM    6  C6  UNL     1      20.097  -0.034  53.012  1.00  0.00    -0.032 C 
HETATM    7  C7  UNL     1      19.221   0.382  52.105  1.00  0.00    -0.010 C 
HETATM    8  C8  UNL     1      19.291   1.733  51.472  1.00  0.00     0.105 C 
HETATM    9  C9  UNL     1      20.684   2.155  51.293  1.00  0.00     0.103 C 
HETATM   10  N3  UNL     1      21.516   1.769  52.197  1.00  0.00    -0.262 NA
HETATM   11  C17 UNL     1      21.154   0.970  53.336  1.00  0.00     0.178 C 
ENDROOT
BRANCH   9  12
HETATM   12  N1  UNL     1      21.063   2.947  50.171  1.00  0.00    -0.339 N 
HETATM   13  C10 UNL     1      20.971   4.410  50.284  1.00  0.00     0.163 C 
HETATM   14  C11 UNL     1      22.306   5.022  50.036  1.00  0.00    -0.035 C 
HETATM   15  C14 UNL     1      23.134   4.292  49.308  1.00  0.00     0.142 C 
HETATM   16  O2  UNL     1      22.886   3.040  48.764  1.00  0.00    -0.338 OA
HETATM   17  C15 UNL     1      21.548   2.551  48.872  1.00  0.00     0.225 C 
HETATM   18  C16 UNL     1      21.486   1.065  48.629  1.00  0.00     0.063 C 
BRANCH  14  19
HETATM   19  C12 UNL     1      22.684   6.355  50.567  1.00  0.00     0.083 C 
BRANCH  19  20
HETATM   20  C13 UNL     1      23.865   6.123  51.457  1.00  0.00     0.084 C 
HETATM   21  N2  UNL     1      24.754   7.072  51.478  1.00  0.00    -0.316 NA
HETATM   22  H15 UNL     1      24.551   7.899  50.874  1.00  0.00     0.185 HD
ENDBRANCH  19  20
ENDBRANCH  14  19
ENDBRANCH   9  12
BRANCH   2  23
HETATM   23  O1  UNL     1      24.007   1.478  53.187  1.00  0.00    -0.365 OA
HETATM   24  H4  UNL     1      24.844   1.942  53.516  1.00  0.00     0.217 HD
ENDBRANCH   2  23
TORSDOF 4
ENDMDL
