MODEL 1
REMARK VINA RESULT:      -8.5      0.000      0.000
REMARK  6 active torsions:
REMARK  status: ('A' for Active; 'I' for Inactive)
REMARK    1  A    between atoms: O1_2  and  C2_3 
REMARK    2  A    between atoms: C3_4  and  O2_5 
REMARK    3  A    between atoms: O2_5  and  C4_6 
REMARK    4  A    between atoms: C4_6  and  C5_7 
REMARK    5  A    between atoms: C5_7  and  N1_8 
REMARK    6  A    between atoms: C13_17  and  C14_18 
ROOT
HETATM    1  C2  UNL     1      21.939   2.159  51.338  1.00  0.00     0.230 A 
HETATM    2  C3  UNL     1      23.363   3.155  51.636  1.00  0.00     0.082 A 
HETATM    3  C11 UNL     1      24.087   2.447  52.456  1.00  0.00     0.051 A 
HETATM    4  C12 UNL     1      23.837   1.161  53.066  1.00  0.00     0.024 A 
HETATM    5  C13 UNL     1      23.943   0.067  53.796  1.00  0.00     0.081 A 
HETATM    6  N3  UNL     1      23.147  -0.978  54.016  1.00  0.00    -0.240 NA
HETATM    7  C20 UNL     1      21.967  -1.061  53.414  1.00  0.00     0.234 A 
HETATM    8  N4  UNL     1      21.651  -0.015  52.574  1.00  0.00    -0.242 NA
HETATM    9  C21 UNL     1      22.551   0.991  52.444  1.00  0.00     0.084 A 
ENDROOT
BRANCH   2  10
HETATM   10  O2  UNL     1      24.264   4.174  51.629  1.00  0.00    -0.351 OA
BRANCH  10  11
HETATM   11  C4  UNL     1      24.586   4.902  50.459  1.00  0.00     0.205 C 
BRANCH  11  12
HETATM   12  C5  UNL     1      25.916   4.351  50.004  1.00  0.00     0.299 C 
BRANCH  12  13
HETATM   13  N1  UNL     1      26.478   5.106  48.933  1.00  0.00     0.093 N 
HETATM   14  C6  UNL     1      27.793   4.911  48.517  1.00  0.00     0.302 C 
HETATM   15  C7  UNL     1      28.562   6.208  48.352  1.00  0.00     0.302 C 
HETATM   16  N2  UNL     1      27.845   7.231  47.685  1.00  0.00     0.087 N 
HETATM   17  C8  UNL     1      28.333   8.520  48.113  1.00  0.00     0.310 C 
HETATM   18  C9  UNL     1      26.397   7.265  47.931  1.00  0.00     0.302 C 
HETATM   19  C10 UNL     1      26.162   6.492  49.212  1.00  0.00     0.302 C 
ENDBRANCH  12  13
ENDBRANCH  11  12
ENDBRANCH  10  11
ENDBRANCH   2  10
BRANCH   1  20
HETATM   20  O1  UNL     1      22.443   1.587  50.328  1.00  0.00    -0.378 OA
HETATM   21  C1  UNL     1      22.032   1.416  49.110  1.00  0.00     0.203 C 
ENDBRANCH   1  20
BRANCH   5  22
HETATM   22  C14 UNL     1      25.438   0.026  53.882  1.00  0.00    -0.005 A 
HETATM   23  C15 UNL     1      25.783  -1.106  53.056  1.00  0.00     0.017 A 
HETATM   24  C16 UNL     1      27.064  -1.520  52.737  1.00  0.00     0.045 A 
HETATM   25  C17 UNL     1      28.105  -0.813  53.242  1.00  0.00     0.138 A 
HETATM   26  F1  UNL     1      29.322  -1.171  52.828  1.00  0.00    -0.204 F 
HETATM   27  C18 UNL     1      27.874   0.258  54.039  1.00  0.00     0.073 A 
HETATM   28 CL1  UNL     1      29.152   1.211  54.687  1.00  0.00    -0.081 Cl
HETATM   29  C19 UNL     1      26.552   0.619  54.313  1.00  0.00     0.041 A 
ENDBRANCH   5  22
TORSDOF 6
ENDMDL
MODEL 2
REMARK VINA RESULT:      -8.1      2.034      6.647
REMARK  6 active torsions:
REMARK  status: ('A' for Active; 'I' for Inactive)
REMARK    1  A    between atoms: O1_2  and  C2_3 
REMARK    2  A    between atoms: C3_4  and  O2_5 
REMARK    3  A    between atoms: O2_5  and  C4_6 
REMARK    4  A    between atoms: C4_6  and  C5_7 
REMARK    5  A    between atoms: C5_7  and  N1_8 
REMARK    6  A    between atoms: C13_17  and  C14_18 
ROOT
HETATM    1  C2  UNL     1      23.042   4.837  49.238  1.00  0.00     0.230 A 
HETATM    2  C3  UNL     1      22.460   3.277  49.820  1.00  0.00     0.082 A 
HETATM    3  C11 UNL     1      23.543   2.623  50.131  1.00  0.00     0.051 A 
HETATM    4  C12 UNL     1      24.935   2.994  50.014  1.00  0.00     0.024 A 
HETATM    5  C13 UNL     1      26.254   2.972  50.035  1.00  0.00     0.081 A 
HETATM    6  N3  UNL     1      27.199   3.829  49.649  1.00  0.00    -0.240 NA
HETATM    7  C20 UNL     1      26.867   5.003  49.127  1.00  0.00     0.234 A 
HETATM    8  N4  UNL     1      25.515   5.251  49.026  1.00  0.00    -0.242 NA
HETATM    9  C21 UNL     1      24.658   4.289  49.451  1.00  0.00     0.084 A 
ENDROOT
BRANCH   2  10
HETATM   10  O2  UNL     1      21.660   2.234  50.172  1.00  0.00    -0.351 OA
BRANCH  10  11
HETATM   11  C4  UNL     1      20.535   2.385  51.016  1.00  0.00     0.205 C 
BRANCH  11  12
HETATM   12  C5  UNL     1      21.072   2.254  52.419  1.00  0.00     0.299 C 
BRANCH  12  13
HETATM   13  N1  UNL     1      21.294   0.896  52.792  1.00  0.00     0.093 N 
HETATM   14  C6  UNL     1      20.421   0.221  53.641  1.00  0.00     0.302 C 
HETATM   15  C7  UNL     1      21.133  -0.527  54.753  1.00  0.00     0.302 C 
HETATM   16  N2  UNL     1      22.273  -1.253  54.331  1.00  0.00     0.087 N 
HETATM   17  C8  UNL     1      23.198  -1.381  55.431  1.00  0.00     0.310 C 
HETATM   18  C9  UNL     1      23.050  -0.649  53.240  1.00  0.00     0.302 C 
HETATM   19  C10 UNL     1      22.680   0.819  53.210  1.00  0.00     0.302 C 
ENDBRANCH  12  13
ENDBRANCH  11  12
ENDBRANCH  10  11
ENDBRANCH   2  10
BRANCH   1  20
HETATM   20  O1  UNL     1      22.987   5.380  50.379  1.00  0.00    -0.378 OA
HETATM   21  C1  UNL     1      22.478   6.494  50.808  1.00  0.00     0.203 C 
ENDBRANCH   1  20
BRANCH   5  22
HETATM   22  C14 UNL     1      26.422   1.962  51.128  1.00  0.00    -0.005 A 
HETATM   23  C15 UNL     1      26.230   2.742  52.328  1.00  0.00     0.017 A 
HETATM   24  C16 UNL     1      26.201   2.251  53.620  1.00  0.00     0.045 A 
HETATM   25  C17 UNL     1      26.373   0.918  53.799  1.00  0.00     0.138 A 
HETATM   26  F1  UNL     1      26.230   0.463  55.045  1.00  0.00    -0.204 F 
HETATM   27  C18 UNL     1      26.572   0.111  52.729  1.00  0.00     0.073 A 
HETATM   28 CL1  UNL     1      26.769  -1.592  52.889  1.00  0.00    -0.081 Cl
HETATM   29  C19 UNL     1      26.584   0.679  51.452  1.00  0.00     0.041 A 
ENDBRANCH   5  22
TORSDOF 6
ENDMDL
MODEL 3
REMARK VINA RESULT:      -8.1      3.727      8.232
REMARK  6 active torsions:
REMARK  status: ('A' for Active; 'I' for Inactive)
REMARK    1  A    between atoms: O1_2  and  C2_3 
REMARK    2  A    between atoms: C3_4  and  O2_5 
REMARK    3  A    between atoms: O2_5  and  C4_6 
REMARK    4  A    between atoms: C4_6  and  C5_7 
REMARK    5  A    between atoms: C5_7  and  N1_8 
REMARK    6  A    between atoms: C13_17  and  C14_18 
ROOT
HETATM    1  C2  UNL     1      24.656   5.089  49.470  1.00  0.00     0.230 A 
HETATM    2  C3  UNL     1      26.059   4.047  49.706  1.00  0.00     0.082 A 
HETATM    3  C11 UNL     1      27.037   4.685  49.129  1.00  0.00     0.051 A 
HETATM    4  C12 UNL     1      27.049   5.933  48.401  1.00  0.00     0.024 A 
HETATM    5  C13 UNL     1      27.430   6.976  47.687  1.00  0.00     0.081 A 
HETATM    6  N3  UNL     1      26.790   8.021  47.163  1.00  0.00    -0.240 NA
HETATM    7  C20 UNL     1      25.483   8.166  47.344  1.00  0.00     0.234 A 
HETATM    8  N4  UNL     1      24.871   7.184  48.092  1.00  0.00    -0.242 NA
HETATM    9  C21 UNL     1      25.639   6.169  48.561  1.00  0.00     0.084 A 
ENDROOT
BRANCH   2  10
HETATM   10  O2  UNL     1      26.868   3.012  50.062  1.00  0.00    -0.351 OA
BRANCH  10  11
HETATM   11  C4  UNL     1      26.426   1.940  50.873  1.00  0.00     0.205 C 
BRANCH  11  12
HETATM   12  C5  UNL     1      26.266   2.528  52.253  1.00  0.00     0.299 C 
BRANCH  12  13
HETATM   13  N1  UNL     1      27.035   1.833  53.232  1.00  0.00     0.093 N 
HETATM   14  C6  UNL     1      28.279   2.301  53.648  1.00  0.00     0.302 C 
HETATM   15  C7  UNL     1      29.344   1.221  53.667  1.00  0.00     0.302 C 
HETATM   16  N2  UNL     1      28.922  -0.006  54.234  1.00  0.00     0.087 N 
HETATM   17  C8  UNL     1      29.690  -1.089  53.667  1.00  0.00     0.310 C 
HETATM   18  C9  UNL     1      27.517  -0.368  54.005  1.00  0.00     0.302 C 
HETATM   19  C10 UNL     1      27.053   0.445  52.814  1.00  0.00     0.302 C 
ENDBRANCH  12  13
ENDBRANCH  11  12
ENDBRANCH  10  11
ENDBRANCH   2  10
BRANCH   1  20
HETATM   20  O1  UNL     1      24.830   5.714  50.557  1.00  0.00    -0.378 OA
HETATM   21  C1  UNL     1      24.017   6.139  51.475  1.00  0.00     0.203 C 
ENDBRANCH   1  20
BRANCH   5  22
HETATM   22  C14 UNL     1      28.873   6.981  48.089  1.00  0.00    -0.005 A 
HETATM   23  C15 UNL     1      29.058   8.306  48.629  1.00  0.00     0.017 A 
HETATM   24  C16 UNL     1      30.211   8.789  49.222  1.00  0.00     0.045 A 
HETATM   25  C17 UNL     1      31.279   7.958  49.307  1.00  0.00     0.138 A 
HETATM   26  F1  UNL     1      32.336   8.416  49.980  1.00  0.00    -0.204 F 
HETATM   27  C18 UNL     1      31.199   6.699  48.813  1.00  0.00     0.073 A 
HETATM   28 CL1  UNL     1      32.509   5.588  48.916  1.00  0.00    -0.081 Cl
HETATM   29  C19 UNL     1      29.998   6.280  48.233  1.00  0.00     0.041 A 
ENDBRANCH   5  22
TORSDOF 6
ENDMDL
MODEL 4
REMARK VINA RESULT:      -8.1      1.087      1.406
REMARK  6 active torsions:
REMARK  status: ('A' for Active; 'I' for Inactive)
REMARK    1  A    between atoms: O1_2  and  C2_3 
REMARK    2  A    between atoms: C3_4  and  O2_5 
REMARK    3  A    between atoms: O2_5  and  C4_6 
REMARK    4  A    between atoms: C4_6  and  C5_7 
REMARK    5  A    between atoms: C5_7  and  N1_8 
REMARK    6  A    between atoms: C13_17  and  C14_18 
ROOT
HETATM    1  C2  UNL     1      21.588   2.183  50.718  1.00  0.00     0.230 A 
HETATM    2  C3  UNL     1      22.877   3.369  50.925  1.00  0.00     0.082 A 
HETATM    3  C11 UNL     1      23.668   2.835  51.812  1.00  0.00     0.051 A 
HETATM    4  C12 UNL     1      23.566   1.592  52.540  1.00  0.00     0.024 A 
HETATM    5  C13 UNL     1      23.792   0.592  53.371  1.00  0.00     0.081 A 
HETATM    6  N3  UNL     1      23.124  -0.517  53.687  1.00  0.00    -0.240 NA
HETATM    7  C20 UNL     1      21.973  -0.799  53.091  1.00  0.00     0.234 A 
HETATM    8  N4  UNL     1      21.546   0.116  52.153  1.00  0.00    -0.242 NA
HETATM    9  C21 UNL     1      22.319   1.208  51.932  1.00  0.00     0.084 A 
ENDROOT
BRANCH   2  10
HETATM   10  O2  UNL     1      23.648   4.485  50.824  1.00  0.00    -0.351 OA
BRANCH  10  11
HETATM   11  C4  UNL     1      25.010   4.443  50.444  1.00  0.00     0.205 C 
BRANCH  11  12
HETATM   12  C5  UNL     1      25.134   5.428  49.307  1.00  0.00     0.299 C 
BRANCH  12  13
HETATM   13  N1  UNL     1      26.122   6.424  49.558  1.00  0.00     0.093 N 
HETATM   14  C6  UNL     1      25.836   7.562  50.309  1.00  0.00     0.302 C 
HETATM   15  C7  UNL     1      26.317   8.843  49.654  1.00  0.00     0.302 C 
HETATM   16  N2  UNL     1      27.625   8.768  49.116  1.00  0.00     0.087 N 
HETATM   17  C8  UNL     1      27.753   9.706  48.026  1.00  0.00     0.310 C 
HETATM   18  C9  UNL     1      28.013   7.467  48.553  1.00  0.00     0.302 C 
HETATM   19  C10 UNL     1      26.727   6.719  48.274  1.00  0.00     0.302 C 
ENDBRANCH  12  13
ENDBRANCH  11  12
ENDBRANCH  10  11
ENDBRANCH   2  10
BRANCH   1  20
HETATM   20  O1  UNL     1      22.174   1.585  49.769  1.00  0.00    -0.378 OA
HETATM   21  C1  UNL     1      21.795   1.223  48.582  1.00  0.00     0.203 C 
ENDBRANCH   1  20
BRANCH   5  22
HETATM   22  C14 UNL     1      25.279   0.741  53.468  1.00  0.00    -0.005 A 
HETATM   23  C15 UNL     1      25.762  -0.586  53.169  1.00  0.00     0.017 A 
HETATM   24  C16 UNL     1      27.088  -0.960  53.045  1.00  0.00     0.045 A 
HETATM   25  C17 UNL     1      28.037  -0.007  53.222  1.00  0.00     0.138 A 
HETATM   26  F1  UNL     1      29.298  -0.375  52.987  1.00  0.00    -0.204 F 
HETATM   27  C18 UNL     1      27.675   1.264  53.518  1.00  0.00     0.073 A 
HETATM   28 CL1  UNL     1      28.831   2.522  53.727  1.00  0.00    -0.081 Cl
HETATM   29  C19 UNL     1      26.314   1.568  53.623  1.00  0.00     0.041 A 
ENDBRANCH   5  22
TORSDOF 6
ENDMDL
MODEL 5
REMARK VINA RESULT:      -7.9      2.709      3.436
REMARK  6 active torsions:
REMARK  status: ('A' for Active; 'I' for Inactive)
REMARK    1  A    between atoms: O1_2  and  C2_3 
REMARK    2  A    between atoms: C3_4  and  O2_5 
REMARK    3  A    between atoms: O2_5  and  C4_6 
REMARK    4  A    between atoms: C4_6  and  C5_7 
REMARK    5  A    between atoms: C5_7  and  N1_8 
REMARK    6  A    between atoms: C13_17  and  C14_18 
ROOT
HETATM    1  C2  UNL     1      21.788   2.412  50.659  1.00  0.00     0.230 A 
HETATM    2  C3  UNL     1      23.092   3.557  50.977  1.00  0.00     0.082 A 
HETATM    3  C11 UNL     1      23.845   2.955  51.853  1.00  0.00     0.051 A 
HETATM    4  C12 UNL     1      23.696   1.673  52.502  1.00  0.00     0.024 A 
HETATM    5  C13 UNL     1      23.877   0.621  53.278  1.00  0.00     0.081 A 
HETATM    6  N3  UNL     1      23.180  -0.491  53.507  1.00  0.00    -0.240 NA
HETATM    7  C20 UNL     1      22.042  -0.714  52.860  1.00  0.00     0.234 A 
HETATM    8  N4  UNL     1      21.663   0.265  51.966  1.00  0.00    -0.242 NA
HETATM    9  C21 UNL     1      22.462   1.352  51.835  1.00  0.00     0.084 A 
ENDROOT
BRANCH   2  10
HETATM   10  O2  UNL     1      23.886   4.662  50.967  1.00  0.00    -0.351 OA
BRANCH  10  11
HETATM   11  C4  UNL     1      23.619   5.804  51.757  1.00  0.00     0.205 C 
BRANCH  11  12
HETATM   12  C5  UNL     1      23.937   6.982  50.870  1.00  0.00     0.299 C 
BRANCH  12  13
HETATM   13  N1  UNL     1      22.867   7.299  49.982  1.00  0.00     0.093 N 
HETATM   14  C6  UNL     1      22.945   8.376  49.104  1.00  0.00     0.302 C 
HETATM   15  C7  UNL     1      21.703   9.248  49.122  1.00  0.00     0.302 C 
HETATM   16  N2  UNL     1      20.484   8.527  49.115  1.00  0.00     0.087 N 
HETATM   17  C8  UNL     1      19.454   9.315  49.749  1.00  0.00     0.310 C 
HETATM   18  C9  UNL     1      20.490   7.248  49.837  1.00  0.00     0.302 C 
HETATM   19  C10 UNL     1      21.665   7.300  50.792  1.00  0.00     0.302 C 
ENDBRANCH  12  13
ENDBRANCH  11  12
ENDBRANCH  10  11
ENDBRANCH   2  10
BRANCH   1  20
HETATM   20  O1  UNL     1      22.392   1.860  49.695  1.00  0.00    -0.378 OA
HETATM   21  C1  UNL     1      22.048   1.586  48.474  1.00  0.00     0.203 C 
ENDBRANCH   1  20
BRANCH   5  22
HETATM   22  C14 UNL     1      25.363   0.734  53.429  1.00  0.00    -0.005 A 
HETATM   23  C15 UNL     1      25.827  -0.594  53.105  1.00  0.00     0.017 A 
HETATM   24  C16 UNL     1      27.148  -0.993  53.013  1.00  0.00     0.045 A 
HETATM   25  C17 UNL     1      28.111  -0.069  53.251  1.00  0.00     0.138 A 
HETATM   26  F1  UNL     1      29.371  -0.457  53.047  1.00  0.00    -0.204 F 
HETATM   27  C18 UNL     1      27.766   1.201  53.575  1.00  0.00     0.073 A 
HETATM   28 CL1  UNL     1      28.941   2.426  53.861  1.00  0.00    -0.081 Cl
HETATM   29  C19 UNL     1      26.410   1.532  53.643  1.00  0.00     0.041 A 
ENDBRANCH   5  22
TORSDOF 6
ENDMDL
MODEL 6
REMARK VINA RESULT:      -7.8      1.872      2.606
REMARK  6 active torsions:
REMARK  status: ('A' for Active; 'I' for Inactive)
REMARK    1  A    between atoms: O1_2  and  C2_3 
REMARK    2  A    between atoms: C3_4  and  O2_5 
REMARK    3  A    between atoms: O2_5  and  C4_6 
REMARK    4  A    between atoms: C4_6  and  C5_7 
REMARK    5  A    between atoms: C5_7  and  N1_8 
REMARK    6  A    between atoms: C13_17  and  C14_18 
ROOT
HETATM    1  C2  UNL     1      23.330   3.590  49.663  1.00  0.00     0.230 A 
HETATM    2  C3  UNL     1      25.091   3.665  49.718  1.00  0.00     0.082 A 
HETATM    3  C11 UNL     1      25.416   2.916  50.733  1.00  0.00     0.051 A 
HETATM    4  C12 UNL     1      24.591   2.196  51.676  1.00  0.00     0.024 A 
HETATM    5  C13 UNL     1      24.181   1.461  52.692  1.00  0.00     0.081 A 
HETATM    6  N3  UNL     1      22.982   1.133  53.172  1.00  0.00    -0.240 NA
HETATM    7  C20 UNL     1      21.879   1.566  52.574  1.00  0.00     0.234 A 
HETATM    8  N4  UNL     1      22.074   2.350  51.458  1.00  0.00    -0.242 NA
HETATM    9  C21 UNL     1      23.349   2.614  51.080  1.00  0.00     0.084 A 
ENDROOT
BRANCH   2  10
HETATM   10  O2  UNL     1      26.391   3.969  49.453  1.00  0.00    -0.351 OA
BRANCH  10  11
HETATM   11  C4  UNL     1      26.787   5.204  48.889  1.00  0.00     0.205 C 
BRANCH  11  12
HETATM   12  C5  UNL     1      25.848   6.228  49.478  1.00  0.00     0.299 C 
BRANCH  12  13
HETATM   13  N1  UNL     1      26.485   7.482  49.707  1.00  0.00     0.093 N 
HETATM   14  C6  UNL     1      25.750   8.645  49.924  1.00  0.00     0.302 C 
HETATM   15  C7  UNL     1      26.232   9.817  49.091  1.00  0.00     0.302 C 
HETATM   16  N2  UNL     1      27.639   9.971  49.059  1.00  0.00     0.087 N 
HETATM   17  C8  UNL     1      28.025  10.627  47.832  1.00  0.00     0.310 C 
HETATM   18  C9  UNL     1      28.421   8.728  49.094  1.00  0.00     0.302 C 
HETATM   19  C10 UNL     1      27.484   7.619  48.665  1.00  0.00     0.302 C 
ENDBRANCH  12  13
ENDBRANCH  11  12
ENDBRANCH  10  11
ENDBRANCH   2  10
BRANCH   1  20
HETATM   20  O1  UNL     1      23.311   2.597  48.880  1.00  0.00    -0.378 OA
HETATM   21  C1  UNL     1      22.557   2.277  47.873  1.00  0.00     0.203 C 
ENDBRANCH   1  20
BRANCH   5  22
HETATM   22  C14 UNL     1      25.412   0.622  52.844  1.00  0.00    -0.005 A 
HETATM   23  C15 UNL     1      26.249   1.420  53.708  1.00  0.00     0.017 A 
HETATM   24  C16 UNL     1      27.476   1.045  54.224  1.00  0.00     0.045 A 
HETATM   25  C17 UNL     1      27.958  -0.180  53.895  1.00  0.00     0.138 A 
HETATM   26  F1  UNL     1      29.089  -0.553  54.495  1.00  0.00    -0.204 F 
HETATM   27  C18 UNL     1      27.245  -0.991  53.078  1.00  0.00     0.073 A 
HETATM   28 CL1  UNL     1      27.789  -2.566  52.646  1.00  0.00    -0.081 Cl
HETATM   29  C19 UNL     1      26.009  -0.546  52.599  1.00  0.00     0.041 A 
ENDBRANCH   5  22
TORSDOF 6
ENDMDL
MODEL 7
REMARK VINA RESULT:      -7.5      3.351      6.707
REMARK  6 active torsions:
REMARK  status: ('A' for Active; 'I' for Inactive)
REMARK    1  A    between atoms: O1_2  and  C2_3 
REMARK    2  A    between atoms: C3_4  and  O2_5 
REMARK    3  A    between atoms: O2_5  and  C4_6 
REMARK    4  A    between atoms: C4_6  and  C5_7 
REMARK    5  A    between atoms: C5_7  and  N1_8 
REMARK    6  A    between atoms: C13_17  and  C14_18 
ROOT
HETATM    1  C2  UNL     1      19.285   1.054  50.265  1.00  0.00     0.230 A 
HETATM    2  C3  UNL     1      20.800   0.547  51.012  1.00  0.00     0.082 A 
HETATM    3  C11 UNL     1      21.721   1.160  50.326  1.00  0.00     0.051 A 
HETATM    4  C12 UNL     1      21.619   2.030  49.177  1.00  0.00     0.024 A 
HETATM    5  C13 UNL     1      21.910   2.811  48.153  1.00  0.00     0.081 A 
HETATM    6  N3  UNL     1      21.182   3.408  47.210  1.00  0.00    -0.240 NA
HETATM    7  C20 UNL     1      19.861   3.279  47.199  1.00  0.00     0.234 A 
HETATM    8  N4  UNL     1      19.329   2.507  48.210  1.00  0.00    -0.242 NA
HETATM    9  C21 UNL     1      20.184   1.950  49.103  1.00  0.00     0.084 A 
ENDROOT
BRANCH   2  10
HETATM   10  O2  UNL     1      21.718  -0.059  51.813  1.00  0.00    -0.351 OA
BRANCH  10  11
HETATM   11  C4  UNL     1      22.770   0.647  52.441  1.00  0.00     0.205 C 
BRANCH  11  12
HETATM   12  C5  UNL     1      23.263  -0.267  53.536  1.00  0.00     0.299 C 
BRANCH  12  13
HETATM   13  N1  UNL     1      24.672  -0.477  53.476  1.00  0.00     0.093 N 
HETATM   14  C6  UNL     1      25.437  -0.613  54.631  1.00  0.00     0.302 C 
HETATM   15  C7  UNL     1      26.691   0.241  54.617  1.00  0.00     0.302 C 
HETATM   16  N2  UNL     1      27.403   0.213  53.393  1.00  0.00     0.087 N 
HETATM   17  C8  UNL     1      28.139   1.444  53.235  1.00  0.00     0.310 C 
HETATM   18  C9  UNL     1      26.586   0.092  52.178  1.00  0.00     0.302 C 
HETATM   19  C10 UNL     1      25.185   0.522  52.559  1.00  0.00     0.302 C 
ENDBRANCH  12  13
ENDBRANCH  11  12
ENDBRANCH  10  11
ENDBRANCH   2  10
BRANCH   1  20
HETATM   20  O1  UNL     1      19.137   2.046  51.036  1.00  0.00    -0.378 OA
HETATM   21  C1  UNL     1      18.099   2.581  51.602  1.00  0.00     0.203 C 
ENDBRANCH   1  20
BRANCH   5  22
HETATM   22  C14 UNL     1      23.228   3.316  48.652  1.00  0.00    -0.005 A 
HETATM   23  C15 UNL     1      23.137   4.740  48.436  1.00  0.00     0.017 A 
HETATM   24  C16 UNL     1      24.077   5.682  48.813  1.00  0.00     0.045 A 
HETATM   25  C17 UNL     1      25.198   5.247  49.440  1.00  0.00     0.138 A 
HETATM   26  F1  UNL     1      26.031   6.188  49.888  1.00  0.00    -0.204 F 
HETATM   27  C18 UNL     1      25.374   3.924  49.673  1.00  0.00     0.073 A 
HETATM   28 CL1  UNL     1      26.761   3.313  50.489  1.00  0.00    -0.081 Cl
HETATM   29  C19 UNL     1      24.377   3.032  49.267  1.00  0.00     0.041 A 
ENDBRANCH   5  22
TORSDOF 6
ENDMDL
MODEL 8
REMARK VINA RESULT:      -7.5      2.124      3.070
REMARK  6 active torsions:
REMARK  status: ('A' for Active; 'I' for Inactive)
REMARK    1  A    between atoms: O1_2  and  C2_3 
REMARK    2  A    between atoms: C3_4  and  O2_5 
REMARK    3  A    between atoms: O2_5  and  C4_6 
REMARK    4  A    between atoms: C4_6  and  C5_7 
REMARK    5  A    between atoms: C5_7  and  N1_8 
REMARK    6  A    between atoms: C13_17  and  C14_18 
ROOT
HETATM    1  C2  UNL     1      23.468   4.536  49.301  1.00  0.00     0.230 A 
HETATM    2  C3  UNL     1      25.219   4.324  49.313  1.00  0.00     0.082 A 
HETATM    3  C11 UNL     1      25.446   3.565  50.348  1.00  0.00     0.051 A 
HETATM    4  C12 UNL     1      24.541   3.020  51.334  1.00  0.00     0.024 A 
HETATM    5  C13 UNL     1      24.046   2.394  52.385  1.00  0.00     0.081 A 
HETATM    6  N3  UNL     1      22.824   2.282  52.903  1.00  0.00    -0.240 NA
HETATM    7  C20 UNL     1      21.790   2.870  52.315  1.00  0.00     0.234 A 
HETATM    8  N4  UNL     1      22.078   3.576  51.167  1.00  0.00    -0.242 NA
HETATM    9  C21 UNL     1      23.368   3.615  50.751  1.00  0.00     0.084 A 
ENDROOT
BRANCH   2  10
HETATM   10  O2  UNL     1      26.543   4.403  49.009  1.00  0.00    -0.351 OA
BRANCH  10  11
HETATM   11  C4  UNL     1      27.152   5.595  48.553  1.00  0.00     0.205 C 
BRANCH  11  12
HETATM   12  C5  UNL     1      28.615   5.259  48.402  1.00  0.00     0.299 C 
BRANCH  12  13
HETATM   13  N1  UNL     1      29.405   6.401  48.077  1.00  0.00     0.093 N 
HETATM   14  C6  UNL     1      30.747   6.484  48.436  1.00  0.00     0.302 C 
HETATM   15  C7  UNL     1      31.109   7.808  49.082  1.00  0.00     0.302 C 
HETATM   16  N2  UNL     1      30.570   8.943  48.428  1.00  0.00     0.087 N 
HETATM   17  C8  UNL     1      30.408  10.016  49.380  1.00  0.00     0.310 C 
HETATM   18  C9  UNL     1      29.246   8.763  47.819  1.00  0.00     0.302 C 
HETATM   19  C10 UNL     1      28.627   7.553  48.487  1.00  0.00     0.302 C 
ENDBRANCH  12  13
ENDBRANCH  11  12
ENDBRANCH  10  11
ENDBRANCH   2  10
BRANCH   1  20
HETATM   20  O1  UNL     1      23.266   3.535  48.555  1.00  0.00    -0.378 OA
HETATM   21  C1  UNL     1      22.402   3.288  47.617  1.00  0.00     0.203 C 
ENDBRANCH   1  20
BRANCH   5  22
HETATM   22  C14 UNL     1      25.129   1.370  52.540  1.00  0.00    -0.005 A 
HETATM   23  C15 UNL     1      26.089   2.033  53.388  1.00  0.00     0.017 A 
HETATM   24  C16 UNL     1      27.245   1.473  53.901  1.00  0.00     0.045 A 
HETATM   25  C17 UNL     1      27.522   0.184  53.584  1.00  0.00     0.138 A 
HETATM   26  F1  UNL     1      28.584  -0.360  54.181  1.00  0.00    -0.204 F 
HETATM   27  C18 UNL     1      26.681  -0.513  52.781  1.00  0.00     0.073 A 
HETATM   28 CL1  UNL     1      26.963  -2.159  52.366  1.00  0.00    -0.081 Cl
HETATM   29  C19 UNL     1      25.529   0.120  52.305  1.00  0.00     0.041 A 
ENDBRANCH   5  22
TORSDOF 6
ENDMDL
MODEL 9
REMARK VINA RESULT:      -7.2      3.751      5.604
REMARK  6 active torsions:
REMARK  status: ('A' for Active; 'I' for Inactive)
REMARK    1  A    between atoms: O1_2  and  C2_3 
REMARK    2  A    between atoms: C3_4  and  O2_5 
REMARK    3  A    between atoms: O2_5  and  C4_6 
REMARK    4  A    between atoms: C4_6  and  C5_7 
REMARK    5  A    between atoms: C5_7  and  N1_8 
REMARK    6  A    between atoms: C13_17  and  C14_18 
ROOT
HETATM    1  C2  UNL     1      21.697   3.786  49.199  1.00  0.00     0.230 A 
HETATM    2  C3  UNL     1      23.082   3.666  50.284  1.00  0.00     0.082 A 
HETATM    3  C11 UNL     1      22.642   2.974  51.296  1.00  0.00     0.051 A 
HETATM    4  C12 UNL     1      21.330   2.434  51.569  1.00  0.00     0.024 A 
HETATM    5  C13 UNL     1      20.304   1.839  52.148  1.00  0.00     0.081 A 
HETATM    6  N3  UNL     1      19.020   1.690  51.828  1.00  0.00    -0.240 NA
HETATM    7  C20 UNL     1      18.550   2.193  50.693  1.00  0.00     0.234 A 
HETATM    8  N4  UNL     1      19.469   2.853  49.906  1.00  0.00    -0.242 NA
HETATM    9  C21 UNL     1      20.746   2.938  50.354  1.00  0.00     0.084 A 
ENDROOT
BRANCH   2  10
HETATM   10  O2  UNL     1      24.318   3.798  50.838  1.00  0.00    -0.351 OA
BRANCH  10  11
HETATM   11  C4  UNL     1      24.724   3.075  51.983  1.00  0.00     0.205 C 
BRANCH  11  12
HETATM   12  C5  UNL     1      25.825   2.161  51.504  1.00  0.00     0.299 C 
BRANCH  12  13
HETATM   13  N1  UNL     1      26.345   1.343  52.549  1.00  0.00     0.093 N 
HETATM   14  C6  UNL     1      27.091   1.882  53.594  1.00  0.00     0.302 C 
HETATM   15  C7  UNL     1      28.367   1.109  53.874  1.00  0.00     0.302 C 
HETATM   16  N2  UNL     1      28.206  -0.297  53.888  1.00  0.00     0.087 N 
HETATM   17  C8  UNL     1      29.453  -0.929  53.528  1.00  0.00     0.310 C 
HETATM   18  C9  UNL     1      27.213  -0.839  52.950  1.00  0.00     0.302 C 
HETATM   19  C10 UNL     1      26.995   0.224  51.894  1.00  0.00     0.302 C 
ENDBRANCH  12  13
ENDBRANCH  11  12
ENDBRANCH  10  11
ENDBRANCH   2  10
BRANCH   1  20
HETATM   20  O1  UNL     1      22.000   2.739  48.557  1.00  0.00    -0.378 OA
HETATM   21  C1  UNL     1      22.143   2.485  47.292  1.00  0.00     0.203 C 
ENDBRANCH   1  20
BRANCH   5  22
HETATM   22  C14 UNL     1      21.080   0.882  53.000  1.00  0.00    -0.005 A 
HETATM   23  C15 UNL     1      20.124  -0.165  53.272  1.00  0.00     0.017 A 
HETATM   24  C16 UNL     1      20.377  -1.339  53.957  1.00  0.00     0.045 A 
HETATM   25  C17 UNL     1      21.632  -1.543  54.430  1.00  0.00     0.138 A 
HETATM   26  F1  UNL     1      21.870  -2.731  54.988  1.00  0.00    -0.204 F 
HETATM   27  C18 UNL     1      22.591  -0.607  54.231  1.00  0.00     0.073 A 
HETATM   28 CL1  UNL     1      24.208  -0.820  54.781  1.00  0.00    -0.081 Cl
HETATM   29  C19 UNL     1      22.262   0.553  53.525  1.00  0.00     0.041 A 
ENDBRANCH   5  22
TORSDOF 6
ENDMDL
