MODEL 1
REMARK VINA RESULT:      -7.8      0.000      0.000
REMARK  5 active torsions:
REMARK  status: ('A' for Active; 'I' for Inactive)
REMARK    1  A    between atoms: C2_2  and  C3_3 
REMARK    2  A    between atoms: C2_2  and  N1_10 
REMARK    3  A    between atoms: C3_3  and  C4_4 
REMARK    4  A    between atoms: N1_10  and  S1_11 
REMARK    5  A    between atoms: S1_11  and  C9_14 
ROOT
HETATM    1  N1  UNL     1      25.019   1.614  51.781  1.00  0.00    -0.211 NA
HETATM    2  H11 UNL     1      24.940   0.773  51.188  1.00  0.00     0.140 HD
ENDROOT
BRANCH   1   3
HETATM    3  C2  UNL     1      23.853   1.816  52.620  1.00  0.00     0.068 C 
HETATM    4  C1  UNL     1      23.067   2.986  52.152  1.00  0.00     0.027 C 
BRANCH   3   5
HETATM    5  C3  UNL     1      23.079   0.540  52.704  1.00  0.00     0.032 C 
BRANCH   5   6
HETATM    6  C4  UNL     1      22.093   0.456  53.811  1.00  0.00     0.034 A 
HETATM    7  C5  UNL     1      22.247  -0.933  54.382  1.00  0.00    -0.016 A 
HETATM    8  C6  UNL     1      21.132  -1.643  54.302  1.00  0.00     0.020 A 
HETATM    9  C7  UNL     1      20.136  -0.775  53.664  1.00  0.00     0.030 A 
HETATM   10 CL1  UNL     1      18.525  -1.422  53.405  1.00  0.00    -0.085 Cl
HETATM   11  C8  UNL     1      20.678   0.402  53.389  1.00  0.00     0.006 A 
ENDBRANCH   5   6
ENDBRANCH   3   5
ENDBRANCH   1   3
BRANCH   1  12
HETATM   12  S1  UNL     1      26.502   1.771  52.601  1.00  0.00     0.241 S 
HETATM   13  O1  UNL     1      27.383   2.653  51.774  1.00  0.00    -0.206 OA
HETATM   14  O2  UNL     1      26.245   2.386  53.945  1.00  0.00    -0.206 OA
BRANCH  12  15
HETATM   15  C9  UNL     1      27.231   0.222  52.815  1.00  0.00     0.074 A 
HETATM   16  C10 UNL     1      26.709  -1.017  52.482  1.00  0.00     0.028 A 
HETATM   17  C11 UNL     1      27.402  -2.186  52.708  1.00  0.00     0.044 A 
HETATM   18  C12 UNL     1      28.658  -2.156  53.282  1.00  0.00     0.116 A 
HETATM   19  F1  UNL     1      29.319  -3.320  53.494  1.00  0.00    -0.206 F 
HETATM   20  C13 UNL     1      29.237  -0.936  53.639  1.00  0.00     0.044 A 
HETATM   21  C14 UNL     1      28.502   0.206  53.392  1.00  0.00     0.028 A 
ENDBRANCH  12  15
ENDBRANCH   1  12
TORSDOF 5
ENDMDL
MODEL 2
REMARK VINA RESULT:      -7.5      4.482      6.334
REMARK  5 active torsions:
REMARK  status: ('A' for Active; 'I' for Inactive)
REMARK    1  A    between atoms: C2_2  and  C3_3 
REMARK    2  A    between atoms: C2_2  and  N1_10 
REMARK    3  A    between atoms: C3_3  and  C4_4 
REMARK    4  A    between atoms: N1_10  and  S1_11 
REMARK    5  A    between atoms: S1_11  and  C9_14 
ROOT
HETATM    1  N1  UNL     1      23.494   1.607  51.727  1.00  0.00    -0.211 NA
HETATM    2  H11 UNL     1      23.737   1.242  50.794  1.00  0.00     0.140 HD
ENDROOT
BRANCH   1   3
HETATM    3  C2  UNL     1      24.049   0.807  52.802  1.00  0.00     0.068 C 
HETATM    4  C1  UNL     1      23.121  -0.292  53.170  1.00  0.00     0.027 C 
BRANCH   3   5
HETATM    5  C3  UNL     1      25.424   0.360  52.424  1.00  0.00     0.032 C 
BRANCH   5   6
HETATM    6  C4  UNL     1      26.087  -0.562  53.380  1.00  0.00     0.034 A 
HETATM    7  C5  UNL     1      26.543   0.307  54.527  1.00  0.00    -0.016 A 
HETATM    8  C6  UNL     1      27.856   0.272  54.703  1.00  0.00     0.020 A 
HETATM    9  C7  UNL     1      28.385  -0.632  53.675  1.00  0.00     0.030 A 
HETATM   10 CL1  UNL     1      30.118  -0.903  53.630  1.00  0.00    -0.085 Cl
HETATM   11  C8  UNL     1      27.391  -1.098  52.934  1.00  0.00     0.006 A 
ENDBRANCH   5   6
ENDBRANCH   3   5
ENDBRANCH   1   3
BRANCH   1  12
HETATM   12  S1  UNL     1      23.721   3.283  51.918  1.00  0.00     0.241 S 
HETATM   13  O1  UNL     1      22.404   3.948  51.676  1.00  0.00    -0.206 OA
HETATM   14  O2  UNL     1      24.202   3.547  53.314  1.00  0.00    -0.206 OA
BRANCH  12  15
HETATM   15  C9  UNL     1      24.899   3.856  50.794  1.00  0.00     0.074 A 
HETATM   16  C10 UNL     1      25.952   3.152  50.233  1.00  0.00     0.028 A 
HETATM   17  C11 UNL     1      26.826   3.734  49.341  1.00  0.00     0.044 A 
HETATM   18  C12 UNL     1      26.676   5.057  48.974  1.00  0.00     0.116 A 
HETATM   19  F1  UNL     1      27.548   5.605  48.094  1.00  0.00    -0.206 F 
HETATM   20  C13 UNL     1      25.632   5.817  49.507  1.00  0.00     0.044 A 
HETATM   21  C14 UNL     1      24.784   5.188  50.396  1.00  0.00     0.028 A 
ENDBRANCH  12  15
ENDBRANCH   1  12
TORSDOF 5
ENDMDL
MODEL 3
REMARK VINA RESULT:      -7.3      3.757      6.220
REMARK  5 active torsions:
REMARK  status: ('A' for Active; 'I' for Inactive)
REMARK    1  A    between atoms: C2_2  and  C3_3 
REMARK    2  A    between atoms: C2_2  and  N1_10 
REMARK    3  A    between atoms: C3_3  and  C4_4 
REMARK    4  A    between atoms: N1_10  and  S1_11 
REMARK    5  A    between atoms: S1_11  and  C9_14 
ROOT
HETATM    1  N1  UNL     1      24.716   3.209  52.084  1.00  0.00    -0.211 NA
HETATM    2  H11 UNL     1      25.147   2.802  52.929  1.00  0.00     0.140 HD
ENDROOT
BRANCH   1   3
HETATM    3  C2  UNL     1      25.521   3.010  50.895  1.00  0.00     0.068 C 
HETATM    4  C1  UNL     1      25.702   4.289  50.164  1.00  0.00     0.027 C 
BRANCH   3   5
HETATM    5  C3  UNL     1      26.793   2.321  51.270  1.00  0.00     0.032 C 
BRANCH   5   6
HETATM    6  C4  UNL     1      26.814   1.697  52.617  1.00  0.00     0.034 A 
HETATM    7  C5  UNL     1      28.031   2.266  53.305  1.00  0.00    -0.016 A 
HETATM    8  C6  UNL     1      28.904   1.331  53.654  1.00  0.00     0.020 A 
HETATM    9  C7  UNL     1      28.331   0.052  53.220  1.00  0.00     0.030 A 
HETATM   10 CL1  UNL     1      29.250  -1.409  53.535  1.00  0.00    -0.085 Cl
HETATM   11  C8  UNL     1      27.159   0.260  52.639  1.00  0.00     0.006 A 
ENDBRANCH   5   6
ENDBRANCH   3   5
ENDBRANCH   1   3
BRANCH   1  12
HETATM   12  S1  UNL     1      23.066   2.841  51.880  1.00  0.00     0.241 S 
HETATM   13  O1  UNL     1      22.278   4.002  52.396  1.00  0.00    -0.206 OA
HETATM   14  O2  UNL     1      22.801   2.624  50.420  1.00  0.00    -0.206 OA
BRANCH  12  15
HETATM   15  C9  UNL     1      22.665   1.406  52.750  1.00  0.00     0.074 A 
HETATM   16  C10 UNL     1      23.512   0.381  53.138  1.00  0.00     0.028 A 
HETATM   17  C11 UNL     1      23.058  -0.718  53.835  1.00  0.00     0.044 A 
HETATM   18  C12 UNL     1      21.723  -0.831  54.171  1.00  0.00     0.116 A 
HETATM   19  F1  UNL     1      21.302  -1.922  54.857  1.00  0.00    -0.206 F 
HETATM   20  C13 UNL     1      20.820   0.171  53.806  1.00  0.00     0.044 A 
HETATM   21  C14 UNL     1      21.325   1.251  53.110  1.00  0.00     0.028 A 
ENDBRANCH  12  15
ENDBRANCH   1  12
TORSDOF 5
ENDMDL
MODEL 4
REMARK VINA RESULT:      -7.1      4.312      6.275
REMARK  5 active torsions:
REMARK  status: ('A' for Active; 'I' for Inactive)
REMARK    1  A    between atoms: C2_2  and  C3_3 
REMARK    2  A    between atoms: C2_2  and  N1_10 
REMARK    3  A    between atoms: C3_3  and  C4_4 
REMARK    4  A    between atoms: N1_10  and  S1_11 
REMARK    5  A    between atoms: S1_11  and  C9_14 
ROOT
HETATM    1  N1  UNL     1      21.788  -0.390  52.590  1.00  0.00    -0.211 NA
HETATM    2  H11 UNL     1      22.209  -0.993  51.866  1.00  0.00     0.140 HD
ENDROOT
BRANCH   1   3
HETATM    3  C2  UNL     1      22.640  -0.238  53.754  1.00  0.00     0.068 C 
HETATM    4  C1  UNL     1      22.085  -0.988  54.910  1.00  0.00     0.027 C 
BRANCH   3   5
HETATM    5  C3  UNL     1      24.042  -0.603  53.390  1.00  0.00     0.032 C 
BRANCH   5   6
HETATM    6  C4  UNL     1      25.053   0.471  53.564  1.00  0.00     0.034 A 
HETATM    7  C5  UNL     1      25.798   0.538  52.252  1.00  0.00    -0.016 A 
HETATM    8  C6  UNL     1      27.093   0.294  52.389  1.00  0.00     0.020 A 
HETATM    9  C7  UNL     1      27.316   0.042  53.817  1.00  0.00     0.030 A 
HETATM   10 CL1  UNL     1      28.951  -0.320  54.343  1.00  0.00    -0.085 Cl
HETATM   11  C8  UNL     1      26.170   0.141  54.473  1.00  0.00     0.006 A 
ENDBRANCH   5   6
ENDBRANCH   3   5
ENDBRANCH   1   3
BRANCH   1  12
HETATM   12  S1  UNL     1      21.135   1.070  52.008  1.00  0.00     0.241 S 
HETATM   13  O1  UNL     1      20.220   0.735  50.874  1.00  0.00    -0.206 OA
HETATM   14  O2  UNL     1      20.382   1.736  53.121  1.00  0.00    -0.206 OA
BRANCH  12  15
HETATM   15  C9  UNL     1      22.400   2.115  51.472  1.00  0.00     0.074 A 
HETATM   16  C10 UNL     1      23.063   2.095  50.256  1.00  0.00     0.028 A 
HETATM   17  C11 UNL     1      24.061   2.994  49.953  1.00  0.00     0.044 A 
HETATM   18  C12 UNL     1      24.438   3.957  50.869  1.00  0.00     0.116 A 
HETATM   19  F1  UNL     1      25.423   4.830  50.547  1.00  0.00    -0.206 F 
HETATM   20  C13 UNL     1      23.806   4.027  52.113  1.00  0.00     0.044 A 
HETATM   21  C14 UNL     1      22.812   3.104  52.367  1.00  0.00     0.028 A 
ENDBRANCH  12  15
ENDBRANCH   1  12
TORSDOF 5
ENDMDL
MODEL 5
REMARK VINA RESULT:      -7.0      4.383      5.986
REMARK  5 active torsions:
REMARK  status: ('A' for Active; 'I' for Inactive)
REMARK    1  A    between atoms: C2_2  and  C3_3 
REMARK    2  A    between atoms: C2_2  and  N1_10 
REMARK    3  A    between atoms: C3_3  and  C4_4 
REMARK    4  A    between atoms: N1_10  and  S1_11 
REMARK    5  A    between atoms: S1_11  and  C9_14 
ROOT
HETATM    1  N1  UNL     1      22.829   3.528  52.417  1.00  0.00    -0.211 NA
HETATM    2  H11 UNL     1      23.587   3.907  53.006  1.00  0.00     0.140 HD
ENDROOT
BRANCH   1   3
HETATM    3  C2  UNL     1      22.713   4.217  51.145  1.00  0.00     0.068 C 
HETATM    4  C1  UNL     1      21.553   5.143  51.155  1.00  0.00     0.027 C 
BRANCH   3   5
HETATM    5  C3  UNL     1      24.021   4.860  50.813  1.00  0.00     0.032 C 
BRANCH   5   6
HETATM    6  C4  UNL     1      24.589   4.515  49.486  1.00  0.00     0.034 A 
HETATM    7  C5  UNL     1      25.480   3.321  49.729  1.00  0.00    -0.016 A 
HETATM    8  C6  UNL     1      26.744   3.553  49.403  1.00  0.00     0.020 A 
HETATM    9  C7  UNL     1      26.795   4.934  48.913  1.00  0.00     0.030 A 
HETATM   10 CL1  UNL     1      28.348   5.566  48.393  1.00  0.00    -0.085 Cl
HETATM   11  C8  UNL     1      25.586   5.472  48.961  1.00  0.00     0.006 A 
ENDBRANCH   5   6
ENDBRANCH   3   5
ENDBRANCH   1   3
BRANCH   1  12
HETATM   12  S1  UNL     1      22.801   1.831  52.294  1.00  0.00     0.241 S 
HETATM   13  O1  UNL     1      21.544   1.352  52.948  1.00  0.00    -0.206 OA
HETATM   14  O2  UNL     1      22.823   1.454  50.843  1.00  0.00    -0.206 OA
BRANCH  12  15
HETATM   15  C9  UNL     1      24.182   1.155  53.078  1.00  0.00     0.074 A 
HETATM   16  C10 UNL     1      24.350  -0.139  53.541  1.00  0.00     0.028 A 
HETATM   17  C11 UNL     1      25.512  -0.552  54.153  1.00  0.00     0.044 A 
HETATM   18  C12 UNL     1      26.562   0.328  54.328  1.00  0.00     0.116 A 
HETATM   19  F1  UNL     1      27.696  -0.102  54.933  1.00  0.00    -0.206 F 
HETATM   20  C13 UNL     1      26.452   1.648  53.882  1.00  0.00     0.044 A 
HETATM   21  C14 UNL     1      25.267   2.011  53.275  1.00  0.00     0.028 A 
ENDBRANCH  12  15
ENDBRANCH   1  12
TORSDOF 5
ENDMDL
MODEL 6
REMARK VINA RESULT:      -6.9      3.289      4.670
REMARK  5 active torsions:
REMARK  status: ('A' for Active; 'I' for Inactive)
REMARK    1  A    between atoms: C2_2  and  C3_3 
REMARK    2  A    between atoms: C2_2  and  N1_10 
REMARK    3  A    between atoms: C3_3  and  C4_4 
REMARK    4  A    between atoms: N1_10  and  S1_11 
REMARK    5  A    between atoms: S1_11  and  C9_14 
ROOT
HETATM    1  N1  UNL     1      25.608   1.185  53.501  1.00  0.00    -0.211 NA
HETATM    2  H11 UNL     1      24.728   1.723  53.476  1.00  0.00     0.140 HD
ENDROOT
BRANCH   1   3
HETATM    3  C2  UNL     1      25.395  -0.220  53.791  1.00  0.00     0.068 C 
HETATM    4  C1  UNL     1      25.615  -0.495  55.234  1.00  0.00     0.027 C 
BRANCH   3   5
HETATM    5  C3  UNL     1      24.054  -0.632  53.276  1.00  0.00     0.032 C 
BRANCH   5   6
HETATM    6  C4  UNL     1      22.886  -0.078  54.005  1.00  0.00     0.034 A 
HETATM    7  C5  UNL     1      22.199  -1.270  54.628  1.00  0.00    -0.016 A 
HETATM    8  C6  UNL     1      20.951  -1.416  54.207  1.00  0.00     0.020 A 
HETATM    9  C7  UNL     1      20.705  -0.323  53.260  1.00  0.00     0.030 A 
HETATM   10 CL1  UNL     1      19.122  -0.226  52.509  1.00  0.00    -0.085 Cl
HETATM   11  C8  UNL     1      21.792   0.426  53.148  1.00  0.00     0.006 A 
ENDBRANCH   5   6
ENDBRANCH   3   5
ENDBRANCH   1   3
BRANCH   1  12
HETATM   12  S1  UNL     1      26.657   1.475  52.192  1.00  0.00     0.241 S 
HETATM   13  O1  UNL     1      27.897   2.107  52.739  1.00  0.00    -0.206 OA
HETATM   14  O2  UNL     1      26.974   0.166  51.532  1.00  0.00    -0.206 OA
BRANCH  12  15
HETATM   15  C9  UNL     1      25.903   2.522  51.046  1.00  0.00     0.074 A 
HETATM   16  C10 UNL     1      26.512   3.427  50.192  1.00  0.00     0.028 A 
HETATM   17  C11 UNL     1      25.788   4.209  49.319  1.00  0.00     0.044 A 
HETATM   18  C12 UNL     1      24.410   4.111  49.269  1.00  0.00     0.116 A 
HETATM   19  F1  UNL     1      23.720   4.891  48.401  1.00  0.00    -0.206 F 
HETATM   20  C13 UNL     1      23.740   3.216  50.107  1.00  0.00     0.044 A 
HETATM   21  C14 UNL     1      24.512   2.456  50.963  1.00  0.00     0.028 A 
ENDBRANCH  12  15
ENDBRANCH   1  12
TORSDOF 5
ENDMDL
MODEL 7
REMARK VINA RESULT:      -6.9      4.643      5.773
REMARK  5 active torsions:
REMARK  status: ('A' for Active; 'I' for Inactive)
REMARK    1  A    between atoms: C2_2  and  C3_3 
REMARK    2  A    between atoms: C2_2  and  N1_10 
REMARK    3  A    between atoms: C3_3  and  C4_4 
REMARK    4  A    between atoms: N1_10  and  S1_11 
REMARK    5  A    between atoms: S1_11  and  C9_14 
ROOT
HETATM    1  N1  UNL     1      25.016   3.784  51.981  1.00  0.00    -0.211 NA
HETATM    2  H11 UNL     1      24.392   4.016  52.769  1.00  0.00     0.140 HD
ENDROOT
BRANCH   1   3
HETATM    3  C2  UNL     1      25.385   2.382  51.956  1.00  0.00     0.068 C 
HETATM    4  C1  UNL     1      26.852   2.223  52.124  1.00  0.00     0.027 C 
BRANCH   3   5
HETATM    5  C3  UNL     1      24.559   1.637  52.954  1.00  0.00     0.032 C 
BRANCH   5   6
HETATM    6  C4  UNL     1      23.951   0.372  52.470  1.00  0.00     0.034 A 
HETATM    7  C5  UNL     1      22.617   0.766  51.883  1.00  0.00    -0.016 A 
HETATM    8  C6  UNL     1      21.598   0.176  52.492  1.00  0.00     0.020 A 
HETATM    9  C7  UNL     1      22.178  -0.665  53.544  1.00  0.00     0.030 A 
HETATM   10 CL1  UNL     1      21.083  -1.594  54.552  1.00  0.00    -0.085 Cl
HETATM   11  C8  UNL     1      23.498  -0.553  53.531  1.00  0.00     0.006 A 
ENDBRANCH   5   6
ENDBRANCH   3   5
ENDBRANCH   1   3
BRANCH   1  12
HETATM   12  S1  UNL     1      24.519   4.401  50.474  1.00  0.00     0.241 S 
HETATM   13  O1  UNL     1      23.885   3.279  49.715  1.00  0.00    -0.206 OA
HETATM   14  O2  UNL     1      23.534   5.507  50.709  1.00  0.00    -0.206 OA
BRANCH  12  15
HETATM   15  C9  UNL     1      25.877   5.022  49.609  1.00  0.00     0.074 A 
HETATM   16  C10 UNL     1      26.992   4.330  49.166  1.00  0.00     0.028 A 
HETATM   17  C11 UNL     1      28.013   4.952  48.480  1.00  0.00     0.044 A 
HETATM   18  C12 UNL     1      27.952   6.305  48.211  1.00  0.00     0.116 A 
HETATM   19  F1  UNL     1      28.969   6.894  47.535  1.00  0.00    -0.206 F 
HETATM   20  C13 UNL     1      26.852   7.056  48.633  1.00  0.00     0.044 A 
HETATM   21  C14 UNL     1      25.857   6.386  49.315  1.00  0.00     0.028 A 
ENDBRANCH  12  15
ENDBRANCH   1  12
TORSDOF 5
ENDMDL
MODEL 8
REMARK VINA RESULT:      -6.8      2.049      2.715
REMARK  5 active torsions:
REMARK  status: ('A' for Active; 'I' for Inactive)
REMARK    1  A    between atoms: C2_2  and  C3_3 
REMARK    2  A    between atoms: C2_2  and  N1_10 
REMARK    3  A    between atoms: C3_3  and  C4_4 
REMARK    4  A    between atoms: N1_10  and  S1_11 
REMARK    5  A    between atoms: S1_11  and  C9_14 
ROOT
HETATM    1  N1  UNL     1      25.076   1.444  51.544  1.00  0.00    -0.211 NA
HETATM    2  H11 UNL     1      24.562   0.690  51.063  1.00  0.00     0.140 HD
ENDROOT
BRANCH   1   3
HETATM    3  C2  UNL     1      24.521   2.757  51.276  1.00  0.00     0.068 C 
HETATM    4  C1  UNL     1      25.262   3.423  50.174  1.00  0.00     0.027 C 
BRANCH   3   5
HETATM    5  C3  UNL     1      23.049   2.634  51.051  1.00  0.00     0.032 C 
BRANCH   5   6
HETATM    6  C4  UNL     1      22.569   1.287  50.652  1.00  0.00     0.034 A 
HETATM    7  C5  UNL     1      21.796   1.499  49.372  1.00  0.00    -0.016 A 
HETATM    8  C6  UNL     1      20.529   1.125  49.474  1.00  0.00     0.020 A 
HETATM    9  C7  UNL     1      20.355   0.630  50.844  1.00  0.00     0.030 A 
HETATM   10 CL1  UNL     1      18.767   0.050  51.315  1.00  0.00    -0.085 Cl
HETATM   11  C8  UNL     1      21.500   0.723  51.503  1.00  0.00     0.006 A 
ENDBRANCH   5   6
ENDBRANCH   3   5
ENDBRANCH   1   3
BRANCH   1  12
HETATM   12  S1  UNL     1      25.400   1.148  53.189  1.00  0.00     0.241 S 
HETATM   13  O1  UNL     1      25.448   2.471  53.885  1.00  0.00    -0.206 OA
HETATM   14  O2  UNL     1      24.302   0.293  53.748  1.00  0.00    -0.206 OA
BRANCH  12  15
HETATM   15  C9  UNL     1      26.906   0.323  53.359  1.00  0.00     0.074 A 
HETATM   16  C10 UNL     1      27.245  -0.935  52.890  1.00  0.00     0.028 A 
HETATM   17  C11 UNL     1      28.493  -1.480  53.097  1.00  0.00     0.044 A 
HETATM   18  C12 UNL     1      29.459  -0.776  53.790  1.00  0.00     0.116 A 
HETATM   19  F1  UNL     1      30.679  -1.334  53.980  1.00  0.00    -0.206 F 
HETATM   20  C13 UNL     1      29.175   0.498  54.288  1.00  0.00     0.044 A 
HETATM   21  C14 UNL     1      27.911   0.999  54.053  1.00  0.00     0.028 A 
ENDBRANCH  12  15
ENDBRANCH   1  12
TORSDOF 5
ENDMDL
MODEL 9
REMARK VINA RESULT:      -6.7      8.898     10.289
REMARK  5 active torsions:
REMARK  status: ('A' for Active; 'I' for Inactive)
REMARK    1  A    between atoms: C2_2  and  C3_3 
REMARK    2  A    between atoms: C2_2  and  N1_10 
REMARK    3  A    between atoms: C3_3  and  C4_4 
REMARK    4  A    between atoms: N1_10  and  S1_11 
REMARK    5  A    between atoms: S1_11  and  C9_14 
ROOT
HETATM    1  N1  UNL     1      31.696   7.542  46.867  1.00  0.00    -0.211 NA
HETATM    2  H11 UNL     1      31.052   6.827  46.496  1.00  0.00     0.140 HD
ENDROOT
BRANCH   1   3
HETATM    3  C2  UNL     1      31.080   8.375  47.882  1.00  0.00     0.068 C 
HETATM    4  C1  UNL     1      30.598   9.649  47.292  1.00  0.00     0.027 C 
BRANCH   3   5
HETATM    5  C3  UNL     1      30.033   7.585  48.599  1.00  0.00     0.032 C 
BRANCH   5   6
HETATM    6  C4  UNL     1      29.179   6.723  47.744  1.00  0.00     0.034 A 
HETATM    7  C5  UNL     1      27.787   7.296  47.858  1.00  0.00    -0.016 A 
HETATM    8  C6  UNL     1      26.917   6.426  48.352  1.00  0.00     0.020 A 
HETATM    9  C7  UNL     1      27.669   5.193  48.609  1.00  0.00     0.030 A 
HETATM   10 CL1  UNL     1      26.798   3.823  49.276  1.00  0.00    -0.085 Cl
HETATM   11  C8  UNL     1      28.937   5.362  48.268  1.00  0.00     0.006 A 
ENDBRANCH   5   6
ENDBRANCH   3   5
ENDBRANCH   1   3
BRANCH   1  12
HETATM   12  S1  UNL     1      33.240   6.962  47.285  1.00  0.00     0.241 S 
HETATM   13  O1  UNL     1      34.207   7.480  46.269  1.00  0.00    -0.206 OA
HETATM   14  O2  UNL     1      33.587   7.464  48.655  1.00  0.00    -0.206 OA
BRANCH  12  15
HETATM   15  C9  UNL     1      33.245   5.236  47.294  1.00  0.00     0.074 A 
HETATM   16  C10 UNL     1      34.227   4.390  47.784  1.00  0.00     0.028 A 
HETATM   17  C11 UNL     1      34.105   3.019  47.729  1.00  0.00     0.044 A 
HETATM   18  C12 UNL     1      32.981   2.438  47.173  1.00  0.00     0.116 A 
HETATM   19  F1  UNL     1      32.885   1.087  47.130  1.00  0.00    -0.206 F 
HETATM   20  C13 UNL     1      31.958   3.240  46.661  1.00  0.00     0.044 A 
HETATM   21  C14 UNL     1      32.129   4.607  46.741  1.00  0.00     0.028 A 
ENDBRANCH  12  15
ENDBRANCH   1  12
TORSDOF 5
ENDMDL
