MODEL 1
REMARK VINA RESULT:      -7.4      0.000      0.000
REMARK  6 active torsions:
REMARK  status: ('A' for Active; 'I' for Inactive)
REMARK    1  A    between atoms: C5_5  and  N1_6 
REMARK    2  A    between atoms: C9_11  and  C10_12 
REMARK    3  A    between atoms: C10_12  and  C11_13 
REMARK    4  A    between atoms: C10_12  and  C12_15 
REMARK    5  A    between atoms: C12_15  and  C13_16 
REMARK    6  A    between atoms: C13_16  and  O1_17 
ROOT
HETATM    1  N1  UNL     1      26.257  -0.037  53.404  1.00  0.00    -0.271 N 
HETATM    2  C6  UNL     1      25.341   0.744  52.644  1.00  0.00     0.140 A 
HETATM    3  C7  UNL     1      24.084   0.596  53.033  1.00  0.00     0.057 A 
HETATM    4  N2  UNL     1      23.186   1.383  52.258  1.00  0.00    -0.385 N 
HETATM    5  C8  UNL     1      21.806   1.447  51.797  1.00  0.00     0.161 C 
HETATM    6  C9  UNL     1      21.017   0.245  52.149  1.00  0.00    -0.007 C 
HETATM    7  C14 UNL     1      21.386  -0.762  52.900  1.00  0.00     0.145 C 
HETATM    8  O2  UNL     1      22.537  -1.138  53.628  1.00  0.00    -0.346 OA
HETATM    9  C15 UNL     1      23.494  -0.222  54.108  1.00  0.00     0.220 A 
HETATM   10  C16 UNL     1      24.572  -0.969  54.791  1.00  0.00     0.150 A 
HETATM   11  N4  UNL     1      25.810  -0.858  54.445  1.00  0.00    -0.186 NA
HETATM   12  H9  UNL     1      23.604   2.254  51.817  1.00  0.00     0.159 HD
ENDROOT
BRANCH   6  13
HETATM   13  C10 UNL     1      19.662   0.239  51.555  1.00  0.00    -0.011 C 
BRANCH  13  14
HETATM   14  C11 UNL     1      19.493   0.920  50.243  1.00  0.00     0.119 C 
HETATM   15  N3  UNL     1      18.550   1.173  49.472  1.00  0.00    -0.311 NA
HETATM   16  H13 UNL     1      18.517   1.657  48.566  1.00  0.00     0.186 HD
ENDBRANCH  13  14
BRANCH  13  17
HETATM   17  C12 UNL     1      18.546  -0.296  52.072  1.00  0.00     0.012 C 
BRANCH  17  18
HETATM   18  C13 UNL     1      17.656  -1.217  52.746  1.00  0.00     0.192 C 
BRANCH  18  19
HETATM   19  O1  UNL     1      17.809  -1.218  54.154  1.00  0.00    -0.397 OA
HETATM   20  H17 UNL     1      18.783  -1.390  54.343  1.00  0.00     0.209 HD
ENDBRANCH  18  19
ENDBRANCH  17  18
ENDBRANCH  13  17
ENDBRANCH   6  13
BRANCH   1  21
HETATM   21  C5  UNL     1      27.660   0.060  53.049  1.00  0.00     0.139 A 
HETATM   22  C2  UNL     1      28.642  -0.395  54.036  1.00  0.00     0.032 A 
HETATM   23  C1  UNL     1      29.794  -1.237  53.512  1.00  0.00     0.016 C 
HETATM   24  C3  UNL     1      29.066   1.003  54.125  1.00  0.00    -0.022 A 
HETATM   25  C4  UNL     1      28.195   1.399  53.253  1.00  0.00    -0.003 A 
ENDBRANCH   1  21
TORSDOF 6
ENDMDL
MODEL 2
REMARK VINA RESULT:      -7.3      1.730      1.983
REMARK  6 active torsions:
REMARK  status: ('A' for Active; 'I' for Inactive)
REMARK    1  A    between atoms: C5_5  and  N1_6 
REMARK    2  A    between atoms: C9_11  and  C10_12 
REMARK    3  A    between atoms: C10_12  and  C11_13 
REMARK    4  A    between atoms: C10_12  and  C12_15 
REMARK    5  A    between atoms: C12_15  and  C13_16 
REMARK    6  A    between atoms: C13_16  and  O1_17 
ROOT
HETATM    1  N1  UNL     1      26.143  -0.109  53.618  1.00  0.00    -0.271 N 
HETATM    2  C6  UNL     1      25.093   0.561  52.929  1.00  0.00     0.140 A 
HETATM    3  C7  UNL     1      23.901   0.354  53.469  1.00  0.00     0.057 A 
HETATM    4  N2  UNL     1      22.867   1.029  52.762  1.00  0.00    -0.385 N 
HETATM    5  C8  UNL     1      21.443   0.972  52.461  1.00  0.00     0.161 C 
HETATM    6  C9  UNL     1      20.789  -0.256  52.966  1.00  0.00    -0.007 C 
HETATM    7  C14 UNL     1      21.312  -1.188  53.722  1.00  0.00     0.145 C 
HETATM    8  O2  UNL     1      22.562  -1.440  54.331  1.00  0.00    -0.346 OA
HETATM    9  C15 UNL     1      23.497  -0.435  54.647  1.00  0.00     0.220 A 
HETATM   10  C16 UNL     1      24.697  -1.064  55.239  1.00  0.00     0.150 A 
HETATM   11  N4  UNL     1      25.877  -0.892  54.747  1.00  0.00    -0.186 NA
HETATM   12  H9  UNL     1      23.168   1.898  52.229  1.00  0.00     0.159 HD
ENDROOT
BRANCH   6  13
HETATM   13  C10 UNL     1      19.380  -0.390  52.534  1.00  0.00    -0.011 C 
BRANCH  13  14
HETATM   14  C11 UNL     1      18.495  -1.251  53.364  1.00  0.00     0.119 C 
HETATM   15  N3  UNL     1      17.339  -1.184  53.818  1.00  0.00    -0.311 NA
HETATM   16  H13 UNL     1      16.791  -1.835  54.394  1.00  0.00     0.186 HD
ENDBRANCH  13  14
BRANCH  13  17
HETATM   17  C12 UNL     1      18.799   0.163  51.459  1.00  0.00     0.012 C 
BRANCH  17  18
HETATM   18  C13 UNL     1      17.890   0.375  50.353  1.00  0.00     0.192 C 
BRANCH  18  19
HETATM   19  O1  UNL     1      18.438   1.172  49.319  1.00  0.00    -0.397 OA
HETATM   20  H17 UNL     1      18.759   2.026  49.746  1.00  0.00     0.209 HD
ENDBRANCH  18  19
ENDBRANCH  17  18
ENDBRANCH  13  17
ENDBRANCH   6  13
BRANCH   1  21
HETATM   21  C5  UNL     1      27.486   0.060  53.098  1.00  0.00     0.139 A 
HETATM   22  C2  UNL     1      28.603  -0.177  54.016  1.00  0.00     0.032 A 
HETATM   23  C1  UNL     1      29.773  -0.979  53.471  1.00  0.00     0.016 C 
HETATM   24  C3  UNL     1      28.895   1.251  53.888  1.00  0.00    -0.022 A 
HETATM   25  C4  UNL     1      27.905   1.454  53.078  1.00  0.00    -0.003 A 
ENDBRANCH   1  21
TORSDOF 6
ENDMDL
MODEL 3
REMARK VINA RESULT:      -7.2      2.324      8.006
REMARK  6 active torsions:
REMARK  status: ('A' for Active; 'I' for Inactive)
REMARK    1  A    between atoms: C5_5  and  N1_6 
REMARK    2  A    between atoms: C9_11  and  C10_12 
REMARK    3  A    between atoms: C10_12  and  C11_13 
REMARK    4  A    between atoms: C10_12  and  C12_15 
REMARK    5  A    between atoms: C12_15  and  C13_16 
REMARK    6  A    between atoms: C13_16  and  O1_17 
ROOT
HETATM    1  N1  UNL     1      20.882   0.565  51.929  1.00  0.00    -0.271 N 
HETATM    2  C6  UNL     1      21.802  -0.243  52.655  1.00  0.00     0.140 A 
HETATM    3  C7  UNL     1      22.910   0.402  52.989  1.00  0.00     0.057 A 
HETATM    4  N2  UNL     1      23.816  -0.425  53.709  1.00  0.00    -0.385 N 
HETATM    5  C8  UNL     1      25.231  -0.608  54.004  1.00  0.00     0.161 C 
HETATM    6  C9  UNL     1      26.109   0.306  53.241  1.00  0.00    -0.007 C 
HETATM    7  C14 UNL     1      25.750   1.293  52.458  1.00  0.00     0.145 C 
HETATM    8  O2  UNL     1      24.538   1.878  52.027  1.00  0.00    -0.346 OA
HETATM    9  C15 UNL     1      23.329   1.794  52.745  1.00  0.00     0.220 A 
HETATM   10  C16 UNL     1      22.269   2.489  51.982  1.00  0.00     0.150 A 
HETATM   11  N4  UNL     1      21.176   1.900  51.632  1.00  0.00    -0.186 NA
HETATM   12  H9  UNL     1      23.376  -1.228  54.248  1.00  0.00     0.159 HD
ENDROOT
BRANCH   6  13
HETATM   13  C10 UNL     1      27.550   0.024  53.424  1.00  0.00    -0.011 C 
BRANCH  13  14
HETATM   14  C11 UNL     1      28.419   1.162  53.827  1.00  0.00     0.119 C 
HETATM   15  N3  UNL     1      29.231   1.920  53.267  1.00  0.00    -0.311 NA
HETATM   16  H13 UNL     1      29.801   2.697  53.625  1.00  0.00     0.186 HD
ENDBRANCH  13  14
BRANCH  13  17
HETATM   17  C12 UNL     1      28.182  -1.146  53.247  1.00  0.00     0.012 C 
BRANCH  17  18
HETATM   18  C13 UNL     1      29.212  -2.162  53.278  1.00  0.00     0.192 C 
BRANCH  18  19
HETATM   19  O1  UNL     1      28.699  -3.481  53.334  1.00  0.00    -0.397 OA
HETATM   20  H17 UNL     1      28.474  -3.667  54.298  1.00  0.00     0.209 HD
ENDBRANCH  18  19
ENDBRANCH  17  18
ENDBRANCH  13  17
ENDBRANCH   6  13
BRANCH   1  21
HETATM   21  C5  UNL     1      19.638  -0.059  51.519  1.00  0.00     0.139 A 
HETATM   22  C2  UNL     1      18.498   0.819  51.244  1.00  0.00     0.032 A 
HETATM   23  C1  UNL     1      17.682   0.506  50.001  1.00  0.00     0.016 C 
HETATM   24  C3  UNL     1      17.859   0.205  52.409  1.00  0.00    -0.022 A 
HETATM   25  C4  UNL     1      18.871  -0.568  52.647  1.00  0.00    -0.003 A 
ENDBRANCH   1  21
TORSDOF 6
ENDMDL
MODEL 4
REMARK VINA RESULT:      -6.9      1.518      1.595
REMARK  6 active torsions:
REMARK  status: ('A' for Active; 'I' for Inactive)
REMARK    1  A    between atoms: C5_5  and  N1_6 
REMARK    2  A    between atoms: C9_11  and  C10_12 
REMARK    3  A    between atoms: C10_12  and  C11_13 
REMARK    4  A    between atoms: C10_12  and  C12_15 
REMARK    5  A    between atoms: C12_15  and  C13_16 
REMARK    6  A    between atoms: C13_16  and  O1_17 
ROOT
HETATM    1  N1  UNL     1      26.444   0.272  53.345  1.00  0.00    -0.271 N 
HETATM    2  C6  UNL     1      25.599   1.309  52.859  1.00  0.00     0.140 A 
HETATM    3  C7  UNL     1      24.320   1.116  53.145  1.00  0.00     0.057 A 
HETATM    4  N2  UNL     1      23.495   2.162  52.646  1.00  0.00    -0.385 N 
HETATM    5  C8  UNL     1      22.140   2.452  52.196  1.00  0.00     0.161 C 
HETATM    6  C9  UNL     1      21.282   1.249  52.116  1.00  0.00    -0.007 C 
HETATM    7  C14 UNL     1      21.571   0.032  52.505  1.00  0.00     0.145 C 
HETATM    8  O2  UNL     1      22.671  -0.625  53.100  1.00  0.00    -0.346 OA
HETATM    9  C15 UNL     1      23.647   0.028  53.878  1.00  0.00     0.220 A 
HETATM   10  C16 UNL     1      24.659  -0.961  54.307  1.00  0.00     0.150 A 
HETATM   11  N4  UNL     1      25.915  -0.816  54.048  1.00  0.00    -0.186 NA
HETATM   12  H9  UNL     1      23.971   3.104  52.525  1.00  0.00     0.159 HD
ENDROOT
BRANCH   6  13
HETATM   13  C10 UNL     1      19.955   1.514  51.517  1.00  0.00    -0.011 C 
BRANCH  13  14
HETATM   14  C11 UNL     1      19.507   2.931  51.462  1.00  0.00     0.119 C 
HETATM   15  N3  UNL     1      18.603   3.613  51.979  1.00  0.00    -0.311 NA
HETATM   16  H13 UNL     1      18.357   4.606  51.887  1.00  0.00     0.186 HD
ENDBRANCH  13  14
BRANCH  13  17
HETATM   17  C12 UNL     1      19.085   0.617  51.029  1.00  0.00     0.012 C 
BRANCH  17  18
HETATM   18  C13 UNL     1      17.876  -0.159  50.851  1.00  0.00     0.192 C 
BRANCH  18  19
HETATM   19  O1  UNL     1      17.371  -0.117  49.529  1.00  0.00    -0.397 OA
HETATM   20  H17 UNL     1      16.392   0.109  49.597  1.00  0.00     0.209 HD
ENDBRANCH  18  19
ENDBRANCH  17  18
ENDBRANCH  13  17
ENDBRANCH   6  13
BRANCH   1  21
HETATM   21  C5  UNL     1      27.864   0.398  53.078  1.00  0.00     0.139 A 
HETATM   22  C2  UNL     1      28.792  -0.121  54.085  1.00  0.00     0.032 A 
HETATM   23  C1  UNL     1      29.977  -0.921  53.571  1.00  0.00     0.016 C 
HETATM   24  C3  UNL     1      29.201   1.268  54.294  1.00  0.00    -0.022 A 
HETATM   25  C4  UNL     1      28.377   1.721  53.403  1.00  0.00    -0.003 A 
ENDBRANCH   1  21
TORSDOF 6
ENDMDL
MODEL 5
REMARK VINA RESULT:      -6.6      3.608      5.021
REMARK  6 active torsions:
REMARK  status: ('A' for Active; 'I' for Inactive)
REMARK    1  A    between atoms: C5_5  and  N1_6 
REMARK    2  A    between atoms: C9_11  and  C10_12 
REMARK    3  A    between atoms: C10_12  and  C11_13 
REMARK    4  A    between atoms: C10_12  and  C12_15 
REMARK    5  A    between atoms: C12_15  and  C13_16 
REMARK    6  A    between atoms: C13_16  and  O1_17 
ROOT
HETATM    1  N1  UNL     1      25.803   3.624  50.258  1.00  0.00    -0.271 N 
HETATM    2  C6  UNL     1      24.467   3.509  50.734  1.00  0.00     0.140 A 
HETATM    3  C7  UNL     1      24.358   2.728  51.798  1.00  0.00     0.057 A 
HETATM    4  N2  UNL     1      23.014   2.625  52.253  1.00  0.00    -0.385 N 
HETATM    5  C8  UNL     1      22.099   1.746  52.968  1.00  0.00     0.161 C 
HETATM    6  C9  UNL     1      22.688   0.426  53.288  1.00  0.00    -0.007 C 
HETATM    7  C14 UNL     1      23.925   0.037  53.107  1.00  0.00     0.145 C 
HETATM    8  O2  UNL     1      25.118   0.598  52.598  1.00  0.00    -0.346 OA
HETATM    9  C15 UNL     1      25.378   1.982  52.558  1.00  0.00     0.220 A 
HETATM   10  C16 UNL     1      26.700   2.204  51.934  1.00  0.00     0.150 A 
HETATM   11  N4  UNL     1      26.853   2.954  50.896  1.00  0.00    -0.186 NA
HETATM   12  H9  UNL     1      22.385   3.449  52.018  1.00  0.00     0.159 HD
ENDROOT
BRANCH   6  13
HETATM   13  C10 UNL     1      21.717  -0.522  53.879  1.00  0.00    -0.011 C 
BRANCH  13  14
HETATM   14  C11 UNL     1      22.268  -1.633  54.699  1.00  0.00     0.119 C 
HETATM   15  N3  UNL     1      22.933  -1.739  55.746  1.00  0.00    -0.311 NA
HETATM   16  H13 UNL     1      23.280  -2.560  56.256  1.00  0.00     0.186 HD
ENDBRANCH  13  14
BRANCH  13  17
HETATM   17  C12 UNL     1      20.382  -0.512  53.746  1.00  0.00     0.012 C 
BRANCH  17  18
HETATM   18  C13 UNL     1      19.059  -0.762  53.216  1.00  0.00     0.192 C 
BRANCH  18  19
HETATM   19  O1  UNL     1      18.894  -0.318  51.882  1.00  0.00    -0.397 OA
HETATM   20  H17 UNL     1      17.965   0.063  51.813  1.00  0.00     0.209 HD
ENDBRANCH  18  19
ENDBRANCH  17  18
ENDBRANCH  13  17
ENDBRANCH   6  13
BRANCH   1  21
HETATM   21  C5  UNL     1      26.019   4.461  49.093  1.00  0.00     0.139 A 
HETATM   22  C2  UNL     1      26.806   5.683  49.273  1.00  0.00     0.032 A 
HETATM   23  C1  UNL     1      27.846   5.986  48.208  1.00  0.00     0.016 C 
HETATM   24  C3  UNL     1      25.575   6.413  48.968  1.00  0.00    -0.022 A 
HETATM   25  C4  UNL     1      24.885   5.329  48.811  1.00  0.00    -0.003 A 
ENDBRANCH   1  21
TORSDOF 6
ENDMDL
MODEL 6
REMARK VINA RESULT:      -6.6      4.170      8.005
REMARK  6 active torsions:
REMARK  status: ('A' for Active; 'I' for Inactive)
REMARK    1  A    between atoms: C5_5  and  N1_6 
REMARK    2  A    between atoms: C9_11  and  C10_12 
REMARK    3  A    between atoms: C10_12  and  C11_13 
REMARK    4  A    between atoms: C10_12  and  C12_15 
REMARK    5  A    between atoms: C12_15  and  C13_16 
REMARK    6  A    between atoms: C13_16  and  O1_17 
ROOT
HETATM    1  N1  UNL     1      22.799   5.615  51.144  1.00  0.00    -0.271 N 
HETATM    2  C6  UNL     1      24.154   5.204  51.003  1.00  0.00     0.140 A 
HETATM    3  C7  UNL     1      24.322   3.901  51.168  1.00  0.00     0.057 A 
HETATM    4  N2  UNL     1      25.684   3.513  51.028  1.00  0.00    -0.385 N 
HETATM    5  C8  UNL     1      26.648   2.503  51.443  1.00  0.00     0.161 C 
HETATM    6  C9  UNL     1      26.108   1.558  52.446  1.00  0.00    -0.007 C 
HETATM    7  C14 UNL     1      24.877   1.473  52.883  1.00  0.00     0.145 C 
HETATM    8  O2  UNL     1      23.651   2.136  52.648  1.00  0.00    -0.346 OA
HETATM    9  C15 UNL     1      23.351   2.830  51.460  1.00  0.00     0.220 A 
HETATM   10  C16 UNL     1      22.002   3.423  51.578  1.00  0.00     0.150 A 
HETATM   11  N4  UNL     1      21.791   4.687  51.427  1.00  0.00    -0.186 NA
HETATM   12  H9  UNL     1      26.280   4.146  50.417  1.00  0.00     0.159 HD
ENDROOT
BRANCH   6  13
HETATM   13  C10 UNL     1      27.126   0.626  52.981  1.00  0.00    -0.011 C 
BRANCH  13  14
HETATM   14  C11 UNL     1      28.338   1.227  53.599  1.00  0.00     0.119 C 
HETATM   15  N3  UNL     1      28.867   1.235  54.725  1.00  0.00    -0.311 NA
HETATM   16  H13 UNL     1      29.722   1.684  55.077  1.00  0.00     0.186 HD
ENDBRANCH  13  14
BRANCH  13  17
HETATM   17  C12 UNL     1      27.098  -0.714  52.957  1.00  0.00     0.012 C 
BRANCH  17  18
HETATM   18  C13 UNL     1      26.967  -2.071  52.471  1.00  0.00     0.192 C 
BRANCH  18  19
HETATM   19  O1  UNL     1      27.905  -2.966  53.039  1.00  0.00    -0.397 OA
HETATM   20  H17 UNL     1      27.384  -3.751  53.393  1.00  0.00     0.209 HD
ENDBRANCH  18  19
ENDBRANCH  17  18
ENDBRANCH  13  17
ENDBRANCH   6  13
BRANCH   1  21
HETATM   21  C5  UNL     1      22.518   7.029  50.979  1.00  0.00     0.139 A 
HETATM   22  C2  UNL     1      21.930   7.460  49.708  1.00  0.00     0.032 A 
HETATM   23  C1  UNL     1      20.788   8.459  49.790  1.00  0.00     0.016 C 
HETATM   24  C3  UNL     1      23.184   8.177  49.474  1.00  0.00    -0.022 A 
HETATM   25  C4  UNL     1      23.698   7.792  50.599  1.00  0.00    -0.003 A 
ENDBRANCH   1  21
TORSDOF 6
ENDMDL
MODEL 7
REMARK VINA RESULT:      -6.5      2.453      3.147
REMARK  6 active torsions:
REMARK  status: ('A' for Active; 'I' for Inactive)
REMARK    1  A    between atoms: C5_5  and  N1_6 
REMARK    2  A    between atoms: C9_11  and  C10_12 
REMARK    3  A    between atoms: C10_12  and  C11_13 
REMARK    4  A    between atoms: C10_12  and  C12_15 
REMARK    5  A    between atoms: C12_15  and  C13_16 
REMARK    6  A    between atoms: C13_16  and  O1_17 
ROOT
HETATM    1  N1  UNL     1      27.415   1.455  52.429  1.00  0.00    -0.271 N 
HETATM    2  C6  UNL     1      26.336   0.588  52.761  1.00  0.00     0.140 A 
HETATM    3  C7  UNL     1      25.193   0.938  52.191  1.00  0.00     0.057 A 
HETATM    4  N2  UNL     1      24.129   0.060  52.539  1.00  0.00    -0.385 N 
HETATM    5  C8  UNL     1      22.682   0.000  52.691  1.00  0.00     0.161 C 
HETATM    6  C9  UNL     1      22.023   1.315  52.527  1.00  0.00    -0.007 C 
HETATM    7  C14 UNL     1      22.572   2.445  52.159  1.00  0.00     0.145 C 
HETATM    8  O2  UNL     1      23.862   2.893  51.793  1.00  0.00    -0.346 OA
HETATM    9  C15 UNL     1      24.868   2.051  51.280  1.00  0.00     0.220 A 
HETATM   10  C16 UNL     1      26.088   2.851  51.043  1.00  0.00     0.150 A 
HETATM   11  N4  UNL     1      27.222   2.550  51.579  1.00  0.00    -0.186 NA
HETATM   12  H9  UNL     1      24.417  -0.928  52.804  1.00  0.00     0.159 HD
ENDROOT
BRANCH   6  13
HETATM   13  C10 UNL     1      20.574   1.286  52.828  1.00  0.00    -0.011 C 
BRANCH  13  14
HETATM   14  C11 UNL     1      20.094   0.225  53.753  1.00  0.00     0.119 C 
HETATM   15  N3  UNL     1      19.227  -0.668  53.731  1.00  0.00    -0.311 NA
HETATM   16  H13 UNL     1      18.954  -1.373  54.426  1.00  0.00     0.186 HD
ENDBRANCH  13  14
BRANCH  13  17
HETATM   17  C12 UNL     1      19.623   2.100  52.345  1.00  0.00     0.012 C 
BRANCH  17  18
HETATM   18  C13 UNL     1      18.900   2.977  51.450  1.00  0.00     0.192 C 
BRANCH  18  19
HETATM   19  O1  UNL     1      17.868   3.707  52.089  1.00  0.00    -0.397 OA
HETATM   20  H17 UNL     1      18.113   4.681  52.021  1.00  0.00     0.209 HD
ENDBRANCH  18  19
ENDBRANCH  17  18
ENDBRANCH  13  17
ENDBRANCH   6  13
BRANCH   1  21
HETATM   21  C5  UNL     1      28.709   1.150  53.010  1.00  0.00     0.139 A 
HETATM   22  C2  UNL     1      28.804  -0.027  53.875  1.00  0.00     0.032 A 
HETATM   23  C1  UNL     1      30.011  -0.927  53.672  1.00  0.00     0.016 C 
HETATM   24  C3  UNL     1      29.076   0.908  54.967  1.00  0.00    -0.022 A 
HETATM   25  C4  UNL     1      28.990   1.945  54.196  1.00  0.00    -0.003 A 
ENDBRANCH   1  21
TORSDOF 6
ENDMDL
MODEL 8
REMARK VINA RESULT:      -6.5      4.804      7.669
REMARK  6 active torsions:
REMARK  status: ('A' for Active; 'I' for Inactive)
REMARK    1  A    between atoms: C5_5  and  N1_6 
REMARK    2  A    between atoms: C9_11  and  C10_12 
REMARK    3  A    between atoms: C10_12  and  C11_13 
REMARK    4  A    between atoms: C10_12  and  C12_15 
REMARK    5  A    between atoms: C12_15  and  C13_16 
REMARK    6  A    between atoms: C13_16  and  O1_17 
ROOT
HETATM    1  N1  UNL     1      24.852   5.833  50.028  1.00  0.00    -0.271 N 
HETATM    2  C6  UNL     1      25.699   4.690  50.078  1.00  0.00     0.140 A 
HETATM    3  C7  UNL     1      25.215   3.716  50.835  1.00  0.00     0.057 A 
HETATM    4  N2  UNL     1      26.079   2.587  50.874  1.00  0.00    -0.385 N 
HETATM    5  C8  UNL     1      26.462   1.451  51.701  1.00  0.00     0.161 C 
HETATM    6  C9  UNL     1      25.829   1.463  53.039  1.00  0.00    -0.007 C 
HETATM    7  C14 UNL     1      24.913   2.287  53.483  1.00  0.00     0.145 C 
HETATM    8  O2  UNL     1      24.192   3.395  52.981  1.00  0.00    -0.346 OA
HETATM    9  C15 UNL     1      23.964   3.625  51.611  1.00  0.00     0.220 A 
HETATM   10  C16 UNL     1      23.209   4.887  51.455  1.00  0.00     0.150 A 
HETATM   11  N4  UNL     1      23.642   5.862  50.730  1.00  0.00    -0.186 NA
HETATM   12  H9  UNL     1      26.711   2.463  50.029  1.00  0.00     0.159 HD
ENDROOT
BRANCH   6  13
HETATM   13  C10 UNL     1      26.329   0.397  53.935  1.00  0.00    -0.011 C 
BRANCH  13  14
HETATM   14  C11 UNL     1      25.333  -0.583  54.445  1.00  0.00     0.119 C 
HETATM   15  N3  UNL     1      25.145  -1.212  55.503  1.00  0.00    -0.311 NA
HETATM   16  H13 UNL     1      24.418  -1.882  55.780  1.00  0.00     0.186 HD
ENDBRANCH  13  14
BRANCH  13  17
HETATM   17  C12 UNL     1      27.586   0.215  54.365  1.00  0.00     0.012 C 
BRANCH  17  18
HETATM   18  C13 UNL     1      29.005   0.416  54.567  1.00  0.00     0.192 C 
BRANCH  18  19
HETATM   19  O1  UNL     1      29.663   0.954  53.435  1.00  0.00    -0.397 OA
HETATM   20  H17 UNL     1      30.649   0.951  53.641  1.00  0.00     0.209 HD
ENDBRANCH  18  19
ENDBRANCH  17  18
ENDBRANCH  13  17
ENDBRANCH   6  13
BRANCH   1  21
HETATM   21  C5  UNL     1      25.301   6.952  49.221  1.00  0.00     0.139 A 
HETATM   22  C2  UNL     1      26.744   7.124  49.044  1.00  0.00     0.032 A 
HETATM   23  C1  UNL     1      27.223   7.457  47.641  1.00  0.00     0.016 C 
HETATM   24  C3  UNL     1      26.600   8.361  49.812  1.00  0.00    -0.022 A 
HETATM   25  C4  UNL     1      25.324   8.202  49.966  1.00  0.00    -0.003 A 
ENDBRANCH   1  21
TORSDOF 6
ENDMDL
MODEL 9
REMARK VINA RESULT:      -6.5      2.531      3.247
REMARK  6 active torsions:
REMARK  status: ('A' for Active; 'I' for Inactive)
REMARK    1  A    between atoms: C5_5  and  N1_6 
REMARK    2  A    between atoms: C9_11  and  C10_12 
REMARK    3  A    between atoms: C10_12  and  C11_13 
REMARK    4  A    between atoms: C10_12  and  C12_15 
REMARK    5  A    between atoms: C12_15  and  C13_16 
REMARK    6  A    between atoms: C13_16  and  O1_17 
ROOT
HETATM    1  N1  UNL     1      23.638  -0.042  53.444  1.00  0.00    -0.271 N 
HETATM    2  C6  UNL     1      22.661   0.598  52.631  1.00  0.00     0.140 A 
HETATM    3  C7  UNL     1      21.420   0.388  53.046  1.00  0.00     0.057 A 
HETATM    4  N2  UNL     1      20.461   1.034  52.218  1.00  0.00    -0.385 N 
HETATM    5  C8  UNL     1      19.077   0.951  51.769  1.00  0.00     0.161 C 
HETATM    6  C9  UNL     1      18.386  -0.273  52.232  1.00  0.00    -0.007 C 
HETATM    7  C14 UNL     1      18.835  -1.181  53.061  1.00  0.00     0.145 C 
HETATM    8  O2  UNL     1      20.016  -1.402  53.805  1.00  0.00    -0.346 OA
HETATM    9  C15 UNL     1      20.901  -0.378  54.194  1.00  0.00     0.220 A 
HETATM   10  C16 UNL     1      22.038  -0.978  54.925  1.00  0.00     0.150 A 
HETATM   11  N4  UNL     1      23.262  -0.803  54.556  1.00  0.00    -0.186 NA
HETATM   12  H9  UNL     1      20.807   1.894  51.699  1.00  0.00     0.159 HD
ENDROOT
BRANCH   6  13
HETATM   13  C10 UNL     1      17.032  -0.434  51.656  1.00  0.00    -0.011 C 
BRANCH  13  14
HETATM   14  C11 UNL     1      15.921  -0.718  52.604  1.00  0.00     0.119 C 
HETATM   15  N3  UNL     1      15.219  -0.062  53.394  1.00  0.00    -0.311 NA
HETATM   16  H13 UNL     1      14.458  -0.339  54.026  1.00  0.00     0.186 HD
ENDBRANCH  13  14
BRANCH  13  17
HETATM   17  C12 UNL     1      16.682  -0.375  50.363  1.00  0.00     0.012 C 
BRANCH  17  18
HETATM   18  C13 UNL     1      16.115  -0.738  49.081  1.00  0.00     0.192 C 
BRANCH  18  19
HETATM   19  O1  UNL     1      16.112   0.325  48.146  1.00  0.00    -0.397 OA
HETATM   20  H17 UNL     1      15.215   0.777  48.220  1.00  0.00     0.209 HD
ENDBRANCH  18  19
ENDBRANCH  17  18
ENDBRANCH  13  17
ENDBRANCH   6  13
BRANCH   1  21
HETATM   21  C5  UNL     1      25.028   0.132  53.065  1.00  0.00     0.139 A 
HETATM   22  C2  UNL     1      26.020  -0.726  53.716  1.00  0.00     0.032 A 
HETATM   23  C1  UNL     1      27.090  -1.330  52.821  1.00  0.00     0.016 C 
HETATM   24  C3  UNL     1      26.539   0.495  54.334  1.00  0.00    -0.022 A 
HETATM   25  C4  UNL     1      25.658   1.248  53.756  1.00  0.00    -0.003 A 
ENDBRANCH   1  21
TORSDOF 6
ENDMDL
