MODEL 1
REMARK VINA RESULT:      -6.1      0.000      0.000
REMARK  7 active torsions:
REMARK  status: ('A' for Active; 'I' for Inactive)
REMARK    1  A    between atoms: C2_2  and  O1_3 
REMARK    2  A    between atoms: O1_3  and  C3_4 
REMARK    3  A    between atoms: C5_6  and  C6_7 
REMARK    4  A    between atoms: C11_15  and  O2_16 
REMARK    5  A    between atoms: O2_16  and  C12_17 
REMARK    6  A    between atoms: C12_17  and  C13_18 
REMARK    7  A    between atoms: N4_26  and  C18_27 
ROOT
HETATM    1  C6  UNL     1      32.465   8.718  47.523  1.00  0.00     0.324 C 
HETATM    2  N1  UNL     1      31.536   9.177  48.495  1.00  0.00     0.168 N 
HETATM    3  C7  UNL     1      32.193   8.293  49.438  1.00  0.00     0.430 C 
HETATM    4  N2  UNL     1      31.414   7.267  49.930  1.00  0.00    -0.374 N 
HETATM    5  C8  UNL     1      31.851   5.942  50.022  1.00  0.00     0.147 C 
HETATM    6  C9  UNL     1      31.891   5.218  48.778  1.00  0.00     0.019 C 
HETATM    7  C10 UNL     1      32.791   4.741  48.027  1.00  0.00     0.065 C 
HETATM    8 CL1  UNL     1      31.794   4.002  46.733  1.00  0.00    -0.082 Cl
HETATM    9  C11 UNL     1      33.955   4.341  47.267  1.00  0.00     0.086 C 
HETATM   10  C14 UNL     1      34.739   5.281  47.841  1.00  0.00     0.018 C 
HETATM   11  C15 UNL     1      35.020   6.385  48.738  1.00  0.00     0.087 C 
HETATM   12  C16 UNL     1      34.584   7.697  48.083  1.00  0.00     0.024 C 
HETATM   13  C17 UNL     1      35.046   8.652  47.240  1.00  0.00     0.074 C 
HETATM   14  S1  UNL     1      33.756   9.943  46.986  1.00  0.00    -0.074 SA
HETATM   15  N3  UNL     1      33.285   8.080  48.534  1.00  0.00    -0.292 N 
HETATM   16  H10 UNL     1      31.526  10.179  48.702  1.00  0.00     0.325 HD
HETATM   17  H12 UNL     1      30.403   7.376  49.975  1.00  0.00     0.157 HD
ENDROOT
BRANCH   1  18
HETATM   18  C5  UNL     1      31.942   7.954  46.377  1.00  0.00     0.296 C 
HETATM   19  C4  UNL     1      32.540   8.232  45.027  1.00  0.00     0.075 C 
HETATM   20  C3  UNL     1      31.333   8.221  44.071  1.00  0.00     0.151 C 
HETATM   21  C20 UNL     1      30.263   8.780  44.969  1.00  0.00     0.305 C 
HETATM   22  N4  UNL     1      30.526   8.286  46.277  1.00  0.00     0.100 N 
BRANCH  20  23
HETATM   23  O1  UNL     1      31.575   9.095  43.016  1.00  0.00    -0.384 OA
BRANCH  23  24
HETATM   24  C2  UNL     1      31.795  10.405  43.441  1.00  0.00     0.163 C 
HETATM   25  C1  UNL     1      32.856  11.108  42.628  1.00  0.00     0.033 C 
ENDBRANCH  23  24
ENDBRANCH  20  23
BRANCH  22  26
HETATM   26  C18 UNL     1      29.644   7.287  46.778  1.00  0.00     0.268 C 
HETATM   27  C19 UNL     1      28.350   7.963  47.203  1.00  0.00     0.037 C 
ENDBRANCH  22  26
ENDBRANCH   1  18
BRANCH   9  28
HETATM   28  O2  UNL     1      34.426   3.482  46.338  1.00  0.00    -0.347 OA
BRANCH  28  29
HETATM   29  C12 UNL     1      35.203   3.821  45.212  1.00  0.00     0.207 C 
BRANCH  29  30
HETATM   30  C13 UNL     1      34.451   4.745  44.287  1.00  0.00     0.248 C 
HETATM   31  F1  UNL     1      33.209   4.278  43.953  1.00  0.00    -0.253 F 
ENDBRANCH  29  30
ENDBRANCH  28  29
ENDBRANCH   9  28
TORSDOF 7
ENDMDL
MODEL 2
REMARK VINA RESULT:      -6.1      9.006     12.116
REMARK  7 active torsions:
REMARK  status: ('A' for Active; 'I' for Inactive)
REMARK    1  A    between atoms: C2_2  and  O1_3 
REMARK    2  A    between atoms: O1_3  and  C3_4 
REMARK    3  A    between atoms: C5_6  and  C6_7 
REMARK    4  A    between atoms: C11_15  and  O2_16 
REMARK    5  A    between atoms: O2_16  and  C12_17 
REMARK    6  A    between atoms: C12_17  and  C13_18 
REMARK    7  A    between atoms: N4_26  and  C18_27 
ROOT
HETATM    1  C6  UNL     1      24.106   4.884  51.346  1.00  0.00     0.324 C 
HETATM    2  N1  UNL     1      24.980   5.882  50.838  1.00  0.00     0.168 N 
HETATM    3  C7  UNL     1      23.854   6.383  50.076  1.00  0.00     0.430 C 
HETATM    4  N2  UNL     1      23.982   6.304  48.706  1.00  0.00    -0.374 N 
HETATM    5  C8  UNL     1      22.973   5.833  47.861  1.00  0.00     0.147 C 
HETATM    6  C9  UNL     1      22.793   4.405  47.854  1.00  0.00     0.019 C 
HETATM    7  C10 UNL     1      21.900   3.594  48.240  1.00  0.00     0.065 C 
HETATM    8 CL1  UNL     1      22.625   2.032  47.743  1.00  0.00    -0.082 Cl
HETATM    9  C11 UNL     1      20.815   2.831  48.816  1.00  0.00     0.086 C 
HETATM   10  C14 UNL     1      20.479   3.824  49.671  1.00  0.00     0.018 C 
HETATM   11  C15 UNL     1      20.608   5.137  50.272  1.00  0.00     0.087 C 
HETATM   12  C16 UNL     1      21.698   5.101  51.346  1.00  0.00     0.024 C 
HETATM   13  C17 UNL     1      21.865   4.809  52.659  1.00  0.00     0.074 C 
HETATM   14  S1  UNL     1      23.629   5.052  53.135  1.00  0.00    -0.074 SA
HETATM   15  N3  UNL     1      22.940   5.569  50.823  1.00  0.00    -0.292 N 
HETATM   16  H10 UNL     1      25.423   6.510  51.514  1.00  0.00     0.325 HD
HETATM   17  H12 UNL     1      24.909   6.312  48.283  1.00  0.00     0.157 HD
ENDROOT
BRANCH   1  18
HETATM   18  C5  UNL     1      24.383   3.481  50.996  1.00  0.00     0.296 C 
HETATM   19  C4  UNL     1      24.125   2.439  52.047  1.00  0.00     0.075 C 
HETATM   20  C3  UNL     1      25.315   1.470  51.917  1.00  0.00     0.151 C 
HETATM   21  C20 UNL     1      26.407   2.425  51.516  1.00  0.00     0.305 C 
HETATM   22  N4  UNL     1      25.806   3.411  50.686  1.00  0.00     0.100 N 
BRANCH  20  23
HETATM   23  O1  UNL     1      25.597   0.919  53.163  1.00  0.00    -0.384 OA
BRANCH  23  24
HETATM   24  C2  UNL     1      25.490  -0.471  53.173  1.00  0.00     0.163 C 
HETATM   25  C1  UNL     1      26.667  -1.149  52.513  1.00  0.00     0.033 C 
ENDBRANCH  23  24
ENDBRANCH  20  23
BRANCH  22  26
HETATM   26  C18 UNL     1      26.109   3.355  49.296  1.00  0.00     0.268 C 
HETATM   27  C19 UNL     1      27.194   4.379  49.003  1.00  0.00     0.037 C 
ENDBRANCH  22  26
ENDBRANCH   1  18
BRANCH   9  28
HETATM   28  O2  UNL     1      20.148   1.659  48.779  1.00  0.00    -0.347 OA
BRANCH  28  29
HETATM   29  C12 UNL     1      19.386   1.103  49.827  1.00  0.00     0.207 C 
BRANCH  29  30
HETATM   30  C13 UNL     1      20.274   0.561  50.920  1.00  0.00     0.248 C 
HETATM   31  F1  UNL     1      21.445   0.031  50.449  1.00  0.00    -0.253 F 
ENDBRANCH  29  30
ENDBRANCH  28  29
ENDBRANCH   9  28
TORSDOF 7
ENDMDL
MODEL 3
REMARK VINA RESULT:      -5.8      2.794      5.844
REMARK  7 active torsions:
REMARK  status: ('A' for Active; 'I' for Inactive)
REMARK    1  A    between atoms: C2_2  and  O1_3 
REMARK    2  A    between atoms: O1_3  and  C3_4 
REMARK    3  A    between atoms: C5_6  and  C6_7 
REMARK    4  A    between atoms: C11_15  and  O2_16 
REMARK    5  A    between atoms: O2_16  and  C12_17 
REMARK    6  A    between atoms: C12_17  and  C13_18 
REMARK    7  A    between atoms: N4_26  and  C18_27 
ROOT
HETATM    1  C6  UNL     1      33.365   6.885  47.450  1.00  0.00     0.324 C 
HETATM    2  N1  UNL     1      34.402   7.578  46.770  1.00  0.00     0.168 N 
HETATM    3  C7  UNL     1      33.759   8.808  47.188  1.00  0.00     0.430 C 
HETATM    4  N2  UNL     1      33.269   9.597  46.169  1.00  0.00    -0.374 N 
HETATM    5  C8  UNL     1      32.000  10.183  46.189  1.00  0.00     0.147 C 
HETATM    6  C9  UNL     1      30.904   9.287  45.925  1.00  0.00     0.019 C 
HETATM    7  C10 UNL     1      29.938   8.805  46.586  1.00  0.00     0.065 C 
HETATM    8 CL1  UNL     1      29.128   7.816  45.329  1.00  0.00    -0.082 Cl
HETATM    9  C11 UNL     1      28.956   8.301  47.522  1.00  0.00     0.086 C 
HETATM   10  C14 UNL     1      29.752   8.536  48.590  1.00  0.00     0.018 C 
HETATM   11  C15 UNL     1      30.960   8.987  49.251  1.00  0.00     0.087 C 
HETATM   12  C16 UNL     1      32.017   7.882  49.191  1.00  0.00     0.024 C 
HETATM   13  C17 UNL     1      32.415   6.775  49.865  1.00  0.00     0.074 C 
HETATM   14  S1  UNL     1      33.858   6.008  49.013  1.00  0.00    -0.074 SA
HETATM   15  N3  UNL     1      32.913   8.098  48.103  1.00  0.00    -0.292 N 
HETATM   16  H10 UNL     1      35.364   7.408  47.077  1.00  0.00     0.325 HD
HETATM   17  H12 UNL     1      33.691   9.548  45.244  1.00  0.00     0.157 HD
ENDROOT
BRANCH   1  18
HETATM   18  C5  UNL     1      32.441   6.066  46.646  1.00  0.00     0.296 C 
HETATM   19  C4  UNL     1      31.973   4.766  47.235  1.00  0.00     0.075 C 
HETATM   20  C3  UNL     1      31.997   3.785  46.048  1.00  0.00     0.151 C 
HETATM   21  C20 UNL     1      33.172   4.317  45.272  1.00  0.00     0.305 C 
HETATM   22  N4  UNL     1      33.154   5.731  45.419  1.00  0.00     0.100 N 
BRANCH  20  23
HETATM   23  O1  UNL     1      32.275   2.504  46.515  1.00  0.00    -0.384 OA
BRANCH  23  24
HETATM   24  C2  UNL     1      33.207   2.499  47.553  1.00  0.00     0.163 C 
HETATM   25  C1  UNL     1      33.091   1.276  48.430  1.00  0.00     0.033 C 
ENDBRANCH  23  24
ENDBRANCH  20  23
BRANCH  22  26
HETATM   26  C18 UNL     1      32.768   6.493  44.280  1.00  0.00     0.268 C 
HETATM   27  C19 UNL     1      33.933   6.515  43.304  1.00  0.00     0.037 C 
ENDBRANCH  22  26
ENDBRANCH   1  18
BRANCH   9  28
HETATM   28  O2  UNL     1      27.722   7.769  47.648  1.00  0.00    -0.347 OA
BRANCH  28  29
HETATM   29  C12 UNL     1      27.209   7.124  48.791  1.00  0.00     0.207 C 
BRANCH  29  30
HETATM   30  C13 UNL     1      27.177   5.627  48.605  1.00  0.00     0.248 C 
HETATM   31  F1  UNL     1      28.358   5.117  48.138  1.00  0.00    -0.253 F 
ENDBRANCH  29  30
ENDBRANCH  28  29
ENDBRANCH   9  28
TORSDOF 7
ENDMDL
MODEL 4
REMARK VINA RESULT:      -5.8     10.167     13.101
REMARK  7 active torsions:
REMARK  status: ('A' for Active; 'I' for Inactive)
REMARK    1  A    between atoms: C2_2  and  O1_3 
REMARK    2  A    between atoms: O1_3  and  C3_4 
REMARK    3  A    between atoms: C5_6  and  C6_7 
REMARK    4  A    between atoms: C11_15  and  O2_16 
REMARK    5  A    between atoms: O2_16  and  C12_17 
REMARK    6  A    between atoms: C12_17  and  C13_18 
REMARK    7  A    between atoms: N4_26  and  C18_27 
ROOT
HETATM    1  C6  UNL     1      23.965   4.334  51.355  1.00  0.00     0.324 C 
HETATM    2  N1  UNL     1      24.985   5.076  50.701  1.00  0.00     0.168 N 
HETATM    3  C7  UNL     1      23.941   5.652  49.877  1.00  0.00     0.430 C 
HETATM    4  N2  UNL     1      24.014   5.351  48.533  1.00  0.00    -0.374 N 
HETATM    5  C8  UNL     1      22.913   4.948  47.771  1.00  0.00     0.147 C 
HETATM    6  C9  UNL     1      22.486   3.588  47.978  1.00  0.00     0.019 C 
HETATM    7  C10 UNL     1      21.478   3.013  48.484  1.00  0.00     0.065 C 
HETATM    8 CL1  UNL     1      21.905   1.292  48.223  1.00  0.00    -0.082 Cl
HETATM    9  C11 UNL     1      20.294   2.547  49.171  1.00  0.00     0.086 C 
HETATM   10  C14 UNL     1      20.162   3.698  49.869  1.00  0.00     0.018 C 
HETATM   11  C15 UNL     1      20.535   5.041  50.266  1.00  0.00     0.087 C 
HETATM   12  C16 UNL     1      21.633   4.971  51.331  1.00  0.00     0.024 C 
HETATM   13  C17 UNL     1      21.785   4.849  52.672  1.00  0.00     0.074 C 
HETATM   14  S1  UNL     1      23.578   4.844  53.101  1.00  0.00    -0.074 SA
HETATM   15  N3  UNL     1      22.921   5.130  50.740  1.00  0.00    -0.292 N 
HETATM   16  H10 UNL     1      25.550   5.708  51.274  1.00  0.00     0.325 HD
HETATM   17  H12 UNL     1      24.915   5.133  48.111  1.00  0.00     0.157 HD
ENDROOT
BRANCH   1  18
HETATM   18  C5  UNL     1      23.983   2.868  51.218  1.00  0.00     0.296 C 
HETATM   19  C4  UNL     1      22.791   2.108  51.727  1.00  0.00     0.075 C 
HETATM   20  C3  UNL     1      23.398   0.869  52.410  1.00  0.00     0.151 C 
HETATM   21  C20 UNL     1      24.682   1.446  52.942  1.00  0.00     0.305 C 
HETATM   22  N4  UNL     1      25.130   2.399  51.987  1.00  0.00     0.100 N 
BRANCH  20  23
HETATM   23  O1  UNL     1      22.579   0.476  53.463  1.00  0.00    -0.384 OA
BRANCH  23  24
HETATM   24  C2  UNL     1      22.427  -0.908  53.541  1.00  0.00     0.163 C 
HETATM   25  C1  UNL     1      21.441  -1.324  54.607  1.00  0.00     0.033 C 
ENDBRANCH  23  24
ENDBRANCH  20  23
BRANCH  22  26
HETATM   26  C18 UNL     1      26.265   2.044  51.204  1.00  0.00     0.268 C 
HETATM   27  C19 UNL     1      27.023   0.948  51.936  1.00  0.00     0.037 C 
ENDBRANCH  22  26
ENDBRANCH   1  18
BRANCH   9  28
HETATM   28  O2  UNL     1      19.432   1.519  49.311  1.00  0.00    -0.347 OA
BRANCH  28  29
HETATM   29  C12 UNL     1      18.645   1.244  50.448  1.00  0.00     0.207 C 
BRANCH  29  30
HETATM   30  C13 UNL     1      19.393   0.382  51.435  1.00  0.00     0.248 C 
HETATM   31  F1  UNL     1      20.566  -0.114  50.936  1.00  0.00    -0.253 F 
ENDBRANCH  29  30
ENDBRANCH  28  29
ENDBRANCH   9  28
TORSDOF 7
ENDMDL
MODEL 5
REMARK VINA RESULT:      -5.8      1.997      2.396
REMARK  7 active torsions:
REMARK  status: ('A' for Active; 'I' for Inactive)
REMARK    1  A    between atoms: C2_2  and  O1_3 
REMARK    2  A    between atoms: O1_3  and  C3_4 
REMARK    3  A    between atoms: C5_6  and  C6_7 
REMARK    4  A    between atoms: C11_15  and  O2_16 
REMARK    5  A    between atoms: O2_16  and  C12_17 
REMARK    6  A    between atoms: C12_17  and  C13_18 
REMARK    7  A    between atoms: N4_26  and  C18_27 
ROOT
HETATM    1  C6  UNL     1      30.719   8.848  48.161  1.00  0.00     0.324 C 
HETATM    2  N1  UNL     1      30.273   8.682  49.501  1.00  0.00     0.168 N 
HETATM    3  C7  UNL     1      31.592   8.160  49.801  1.00  0.00     0.430 C 
HETATM    4  N2  UNL     1      31.631   6.840  50.197  1.00  0.00    -0.374 N 
HETATM    5  C8  UNL     1      32.548   5.911  49.697  1.00  0.00     0.147 C 
HETATM    6  C9  UNL     1      32.276   5.429  48.368  1.00  0.00     0.019 C 
HETATM    7  C10 UNL     1      32.812   5.543  47.227  1.00  0.00     0.065 C 
HETATM    8 CL1  UNL     1      31.712   4.533  46.235  1.00  0.00    -0.082 Cl
HETATM    9  C11 UNL     1      33.519   5.856  46.004  1.00  0.00     0.086 C 
HETATM   10  C14 UNL     1      34.028   7.002  46.511  1.00  0.00     0.018 C 
HETATM   11  C15 UNL     1      34.233   8.005  47.537  1.00  0.00     0.087 C 
HETATM   12  C16 UNL     1      33.052   8.978  47.541  1.00  0.00     0.024 C 
HETATM   13  C17 UNL     1      32.627  10.113  46.934  1.00  0.00     0.074 C 
HETATM   14  S1  UNL     1      30.978  10.600  47.599  1.00  0.00    -0.074 SA
HETATM   15  N3  UNL     1      32.099   8.613  48.538  1.00  0.00    -0.292 N 
HETATM   16  H10 UNL     1      29.961   9.519  50.000  1.00  0.00     0.325 HD
HETATM   17  H12 UNL     1      30.818   6.423  50.646  1.00  0.00     0.157 HD
ENDROOT
BRANCH   1  18
HETATM   18  C5  UNL     1      30.070   8.040  47.114  1.00  0.00     0.296 C 
HETATM   19  C4  UNL     1      29.751   8.718  45.812  1.00  0.00     0.075 C 
HETATM   20  C3  UNL     1      28.360   8.177  45.436  1.00  0.00     0.151 C 
HETATM   21  C20 UNL     1      27.749   8.008  46.801  1.00  0.00     0.305 C 
HETATM   22  N4  UNL     1      28.796   7.597  47.671  1.00  0.00     0.100 N 
BRANCH  20  23
HETATM   23  O1  UNL     1      27.667   9.147  44.720  1.00  0.00    -0.384 OA
BRANCH  23  24
HETATM   24  C2  UNL     1      28.507  10.117  44.174  1.00  0.00     0.163 C 
HETATM   25  C1  UNL     1      28.383  10.213  42.672  1.00  0.00     0.033 C 
ENDBRANCH  23  24
ENDBRANCH  20  23
BRANCH  22  26
HETATM   26  C18 UNL     1      28.778   6.242  48.107  1.00  0.00     0.268 C 
HETATM   27  C19 UNL     1      27.347   5.876  48.466  1.00  0.00     0.037 C 
ENDBRANCH  22  26
ENDBRANCH   1  18
BRANCH   9  28
HETATM   28  O2  UNL     1      33.788   5.444  44.748  1.00  0.00    -0.347 OA
BRANCH  28  29
HETATM   29  C12 UNL     1      34.705   4.438  44.382  1.00  0.00     0.207 C 
BRANCH  29  30
HETATM   30  C13 UNL     1      35.273   3.749  45.598  1.00  0.00     0.248 C 
HETATM   31  F1  UNL     1      34.509   2.698  46.027  1.00  0.00    -0.253 F 
ENDBRANCH  29  30
ENDBRANCH  28  29
ENDBRANCH   9  28
TORSDOF 7
ENDMDL
MODEL 6
REMARK VINA RESULT:      -5.7      2.694      5.908
REMARK  7 active torsions:
REMARK  status: ('A' for Active; 'I' for Inactive)
REMARK    1  A    between atoms: C2_2  and  O1_3 
REMARK    2  A    between atoms: O1_3  and  C3_4 
REMARK    3  A    between atoms: C5_6  and  C6_7 
REMARK    4  A    between atoms: C11_15  and  O2_16 
REMARK    5  A    between atoms: O2_16  and  C12_17 
REMARK    6  A    between atoms: C12_17  and  C13_18 
REMARK    7  A    between atoms: N4_26  and  C18_27 
ROOT
HETATM    1  C6  UNL     1      30.268   7.965  48.199  1.00  0.00     0.324 C 
HETATM    2  N1  UNL     1      30.455   8.165  49.594  1.00  0.00     0.168 N 
HETATM    3  C7  UNL     1      29.901   9.491  49.407  1.00  0.00     0.430 C 
HETATM    4  N2  UNL     1      30.763  10.536  49.665  1.00  0.00    -0.374 N 
HETATM    5  C8  UNL     1      30.908  11.643  48.824  1.00  0.00     0.147 C 
HETATM    6  C9  UNL     1      31.667  11.409  47.623  1.00  0.00     0.019 C 
HETATM    7  C10 UNL     1      31.422  11.362  46.382  1.00  0.00     0.065 C 
HETATM    8 CL1  UNL     1      33.058  11.033  45.727  1.00  0.00    -0.082 Cl
HETATM    9  C11 UNL     1      30.932  11.269  45.024  1.00  0.00     0.086 C 
HETATM   10  C14 UNL     1      29.676  10.970  45.424  1.00  0.00     0.018 C 
HETATM   11  C15 UNL     1      28.637  10.714  46.402  1.00  0.00     0.087 C 
HETATM   12  C16 UNL     1      28.720   9.258  46.866  1.00  0.00     0.024 C 
HETATM   13  C17 UNL     1      28.287   8.021  46.519  1.00  0.00     0.074 C 
HETATM   14  S1  UNL     1      28.922   6.776  47.720  1.00  0.00    -0.074 SA
HETATM   15  N3  UNL     1      29.451   9.157  48.087  1.00  0.00    -0.292 N 
HETATM   16  H10 UNL     1      29.973   7.526  50.231  1.00  0.00     0.325 HD
HETATM   17  H12 UNL     1      31.531  10.408  50.321  1.00  0.00     0.157 HD
ENDROOT
BRANCH   1  18
HETATM   18  C5  UNL     1      31.465   7.783  47.362  1.00  0.00     0.296 C 
HETATM   19  C4  UNL     1      31.393   6.766  46.259  1.00  0.00     0.075 C 
HETATM   20  C3  UNL     1      32.765   6.067  46.301  1.00  0.00     0.151 C 
HETATM   21  C20 UNL     1      33.056   6.115  47.777  1.00  0.00     0.305 C 
HETATM   22  N4  UNL     1      32.529   7.345  48.259  1.00  0.00     0.100 N 
BRANCH  20  23
HETATM   23  O1  UNL     1      32.622   4.747  45.886  1.00  0.00    -0.384 OA
BRANCH  23  24
HETATM   24  C2  UNL     1      32.022   3.941  46.852  1.00  0.00     0.163 C 
HETATM   25  C1  UNL     1      32.354   2.478  46.675  1.00  0.00     0.033 C 
ENDBRANCH  23  24
ENDBRANCH  20  23
BRANCH  22  26
HETATM   26  C18 UNL     1      33.468   8.357  48.606  1.00  0.00     0.268 C 
HETATM   27  C19 UNL     1      34.867   7.781  48.456  1.00  0.00     0.037 C 
ENDBRANCH  22  26
ENDBRANCH   1  18
BRANCH   9  28
HETATM   28  O2  UNL     1      31.266  11.370  43.720  1.00  0.00    -0.347 OA
BRANCH  28  29
HETATM   29  C12 UNL     1      30.885  10.483  42.694  1.00  0.00     0.207 C 
BRANCH  29  30
HETATM   30  C13 UNL     1      31.906   9.387  42.512  1.00  0.00     0.248 C 
HETATM   31  F1  UNL     1      31.740   8.346  43.385  1.00  0.00    -0.253 F 
ENDBRANCH  29  30
ENDBRANCH  28  29
ENDBRANCH   9  28
TORSDOF 7
ENDMDL
MODEL 7
REMARK VINA RESULT:      -5.7      3.668      6.953
REMARK  7 active torsions:
REMARK  status: ('A' for Active; 'I' for Inactive)
REMARK    1  A    between atoms: C2_2  and  O1_3 
REMARK    2  A    between atoms: O1_3  and  C3_4 
REMARK    3  A    between atoms: C5_6  and  C6_7 
REMARK    4  A    between atoms: C11_15  and  O2_16 
REMARK    5  A    between atoms: O2_16  and  C12_17 
REMARK    6  A    between atoms: C12_17  and  C13_18 
REMARK    7  A    between atoms: N4_26  and  C18_27 
ROOT
HETATM    1  C6  UNL     1      29.176   9.363  49.093  1.00  0.00     0.324 C 
HETATM    2  N1  UNL     1      30.277   9.791  49.883  1.00  0.00     0.168 N 
HETATM    3  C7  UNL     1      30.197  11.058  49.183  1.00  0.00     0.430 C 
HETATM    4  N2  UNL     1      31.292  11.378  48.408  1.00  0.00    -0.374 N 
HETATM    5  C8  UNL     1      31.197  11.871  47.104  1.00  0.00     0.147 C 
HETATM    6  C9  UNL     1      30.863  10.895  46.099  1.00  0.00     0.019 C 
HETATM    7  C10 UNL     1      29.871  10.658  45.349  1.00  0.00     0.065 C 
HETATM    8 CL1  UNL     1      30.466   9.231  44.442  1.00  0.00    -0.082 Cl
HETATM    9  C11 UNL     1      28.620  10.505  44.639  1.00  0.00     0.086 C 
HETATM   10  C14 UNL     1      27.920  11.163  45.591  1.00  0.00     0.018 C 
HETATM   11  C15 UNL     1      27.760  11.885  46.838  1.00  0.00     0.087 C 
HETATM   12  C16 UNL     1      27.655  10.888  47.994  1.00  0.00     0.024 C 
HETATM   13  C17 UNL     1      26.736  10.139  48.652  1.00  0.00     0.074 C 
HETATM   14  S1  UNL     1      27.558   9.170  49.987  1.00  0.00    -0.074 SA
HETATM   15  N3  UNL     1      28.921  10.712  48.627  1.00  0.00    -0.292 N 
HETATM   16  H10 UNL     1      30.157   9.793  50.899  1.00  0.00     0.325 HD
HETATM   17  H12 UNL     1      32.207  11.000  48.645  1.00  0.00     0.157 HD
ENDROOT
BRANCH   1  18
HETATM   18  C5  UNL     1      29.397   8.261  48.141  1.00  0.00     0.296 C 
HETATM   19  C4  UNL     1      28.377   7.159  48.107  1.00  0.00     0.075 C 
HETATM   20  C3  UNL     1      29.215   5.874  47.967  1.00  0.00     0.151 C 
HETATM   21  C20 UNL     1      30.442   6.256  48.752  1.00  0.00     0.305 C 
HETATM   22  N4  UNL     1      30.662   7.641  48.521  1.00  0.00     0.100 N 
BRANCH  20  23
HETATM   23  O1  UNL     1      28.555   4.823  48.594  1.00  0.00    -0.384 OA
BRANCH  23  24
HETATM   24  C2  UNL     1      27.189   5.059  48.746  1.00  0.00     0.163 C 
HETATM   25  C1  UNL     1      26.487   3.945  49.486  1.00  0.00     0.033 C 
ENDBRANCH  23  24
ENDBRANCH  20  23
BRANCH  22  26
HETATM   26  C18 UNL     1      31.766   7.989  47.692  1.00  0.00     0.268 C 
HETATM   27  C19 UNL     1      32.291   6.720  47.040  1.00  0.00     0.037 C 
ENDBRANCH  22  26
ENDBRANCH   1  18
BRANCH   9  28
HETATM   28  O2  UNL     1      28.033  10.007  43.531  1.00  0.00    -0.347 OA
BRANCH  28  29
HETATM   29  C12 UNL     1      26.646   9.920  43.293  1.00  0.00     0.207 C 
BRANCH  29  30
HETATM   30  C13 UNL     1      26.105   8.574  43.708  1.00  0.00     0.248 C 
HETATM   31  F1  UNL     1      26.830   7.987  44.709  1.00  0.00    -0.253 F 
ENDBRANCH  29  30
ENDBRANCH  28  29
ENDBRANCH   9  28
TORSDOF 7
ENDMDL
MODEL 8
REMARK VINA RESULT:      -5.7      8.025     11.227
REMARK  7 active torsions:
REMARK  status: ('A' for Active; 'I' for Inactive)
REMARK    1  A    between atoms: C2_2  and  O1_3 
REMARK    2  A    between atoms: O1_3  and  C3_4 
REMARK    3  A    between atoms: C5_6  and  C6_7 
REMARK    4  A    between atoms: C11_15  and  O2_16 
REMARK    5  A    between atoms: O2_16  and  C12_17 
REMARK    6  A    between atoms: C12_17  and  C13_18 
REMARK    7  A    between atoms: N4_26  and  C18_27 
ROOT
HETATM    1  C6  UNL     1      24.073   5.793  51.209  1.00  0.00     0.324 C 
HETATM    2  N1  UNL     1      24.706   7.056  51.359  1.00  0.00     0.168 N 
HETATM    3  C7  UNL     1      23.431   7.657  51.023  1.00  0.00     0.430 C 
HETATM    4  N2  UNL     1      23.409   8.385  49.852  1.00  0.00    -0.374 N 
HETATM    5  C8  UNL     1      22.398   8.274  48.893  1.00  0.00     0.147 C 
HETATM    6  C9  UNL     1      22.455   7.093  48.071  1.00  0.00     0.019 C 
HETATM    7  C10 UNL     1      21.760   6.045  47.928  1.00  0.00     0.065 C 
HETATM    8 CL1  UNL     1      22.669   5.213  46.626  1.00  0.00    -0.082 Cl
HETATM    9  C11 UNL     1      20.890   4.890  47.968  1.00  0.00     0.086 C 
HETATM   10  C14 UNL     1      20.499   5.143  49.238  1.00  0.00     0.018 C 
HETATM   11  C15 UNL     1      20.480   5.889  50.480  1.00  0.00     0.087 C 
HETATM   12  C16 UNL     1      21.679   5.480  51.339  1.00  0.00     0.024 C 
HETATM   13  C17 UNL     1      22.046   4.546  52.250  1.00  0.00     0.074 C 
HETATM   14  S1  UNL     1      23.789   4.832  52.775  1.00  0.00    -0.074 SA
HETATM   15  N3  UNL     1      22.757   6.400  51.173  1.00  0.00    -0.292 N 
HETATM   16  H10 UNL     1      25.116   7.273  52.271  1.00  0.00     0.325 HD
HETATM   17  H12 UNL     1      24.265   8.815  49.507  1.00  0.00     0.157 HD
ENDROOT
BRANCH   1  18
HETATM   18  C5  UNL     1      24.534   4.915  50.119  1.00  0.00     0.296 C 
HETATM   19  C4  UNL     1      24.787   3.472  50.449  1.00  0.00     0.075 C 
HETATM   20  C3  UNL     1      26.075   3.129  49.678  1.00  0.00     0.151 C 
HETATM   21  C20 UNL     1      26.798   4.448  49.746  1.00  0.00     0.305 C 
HETATM   22  N4  UNL     1      25.806   5.464  49.664  1.00  0.00     0.100 N 
BRANCH  20  23
HETATM   23  O1  UNL     1      26.786   2.160  50.378  1.00  0.00    -0.384 OA
BRANCH  23  24
HETATM   24  C2  UNL     1      26.163   1.790  51.569  1.00  0.00     0.163 C 
HETATM   25  C1  UNL     1      26.789   0.566  52.196  1.00  0.00     0.033 C 
ENDBRANCH  23  24
ENDBRANCH  20  23
BRANCH  22  26
HETATM   26  C18 UNL     1      25.735   6.199  48.446  1.00  0.00     0.268 C 
HETATM   27  C19 UNL     1      27.044   6.951  48.267  1.00  0.00     0.037 C 
ENDBRANCH  22  26
ENDBRANCH   1  18
BRANCH   9  28
HETATM   28  O2  UNL     1      20.425   3.833  47.270  1.00  0.00    -0.347 OA
BRANCH  28  29
HETATM   29  C12 UNL     1      20.453   2.486  47.686  1.00  0.00     0.207 C 
BRANCH  29  30
HETATM   30  C13 UNL     1      21.850   2.060  48.065  1.00  0.00     0.248 C 
HETATM   31  F1  UNL     1      21.877   1.162  49.097  1.00  0.00    -0.253 F 
ENDBRANCH  29  30
ENDBRANCH  28  29
ENDBRANCH   9  28
TORSDOF 7
ENDMDL
MODEL 9
REMARK VINA RESULT:      -5.6      8.317     10.634
REMARK  7 active torsions:
REMARK  status: ('A' for Active; 'I' for Inactive)
REMARK    1  A    between atoms: C2_2  and  O1_3 
REMARK    2  A    between atoms: O1_3  and  C3_4 
REMARK    3  A    between atoms: C5_6  and  C6_7 
REMARK    4  A    between atoms: C11_15  and  O2_16 
REMARK    5  A    between atoms: O2_16  and  C12_17 
REMARK    6  A    between atoms: C12_17  and  C13_18 
REMARK    7  A    between atoms: N4_26  and  C18_27 
ROOT
HETATM    1  C6  UNL     1      21.288   5.143  49.923  1.00  0.00     0.324 C 
HETATM    2  N1  UNL     1      20.586   4.474  50.961  1.00  0.00     0.168 N 
HETATM    3  C7  UNL     1      21.618   4.940  51.865  1.00  0.00     0.430 C 
HETATM    4  N2  UNL     1      22.383   3.954  52.451  1.00  0.00    -0.374 N 
HETATM    5  C8  UNL     1      23.777   4.009  52.540  1.00  0.00     0.147 C 
HETATM    6  C9  UNL     1      24.484   3.729  51.316  1.00  0.00     0.019 C 
HETATM    7  C10 UNL     1      25.196   4.386  50.502  1.00  0.00     0.065 C 
HETATM    8 CL1  UNL     1      25.625   3.107  49.321  1.00  0.00    -0.082 Cl
HETATM    9  C11 UNL     1      25.908   5.316  49.653  1.00  0.00     0.086 C 
HETATM   10  C14 UNL     1      25.226   6.382  50.131  1.00  0.00     0.018 C 
HETATM   11  C15 UNL     1      24.245   7.042  50.969  1.00  0.00     0.087 C 
HETATM   12  C16 UNL     1      22.863   6.933  50.321  1.00  0.00     0.024 C 
HETATM   13  C17 UNL     1      22.078   7.565  49.415  1.00  0.00     0.074 C 
HETATM   14  S1  UNL     1      20.476   6.670  49.242  1.00  0.00    -0.074 SA
HETATM   15  N3  UNL     1      22.130   5.841  50.874  1.00  0.00    -0.292 N 
HETATM   16  H10 UNL     1      19.621   4.763  51.141  1.00  0.00     0.325 HD
HETATM   17  H12 UNL     1      21.994   3.023  52.582  1.00  0.00     0.157 HD
ENDROOT
BRANCH   1  18
HETATM   18  C5  UNL     1      21.875   4.324  48.848  1.00  0.00     0.296 C 
HETATM   19  C4  UNL     1      21.658   4.778  47.433  1.00  0.00     0.075 C 
HETATM   20  C3  UNL     1      21.379   3.476  46.658  1.00  0.00     0.151 C 
HETATM   21  C20 UNL     1      20.661   2.675  47.711  1.00  0.00     0.305 C 
HETATM   22  N4  UNL     1      21.260   3.006  48.957  1.00  0.00     0.100 N 
BRANCH  20  23
HETATM   23  O1  UNL     1      20.522   3.747  45.597  1.00  0.00    -0.384 OA
BRANCH  23  24
HETATM   24  C2  UNL     1      21.173   4.344  44.517  1.00  0.00     0.163 C 
HETATM   25  C1  UNL     1      20.459   4.108  43.207  1.00  0.00     0.033 C 
ENDBRANCH  23  24
ENDBRANCH  20  23
BRANCH  22  26
HETATM   26  C18 UNL     1      22.084   2.013  49.559  1.00  0.00     0.268 C 
HETATM   27  C19 UNL     1      21.190   0.888  50.055  1.00  0.00     0.037 C 
ENDBRANCH  22  26
ENDBRANCH   1  18
BRANCH   9  28
HETATM   28  O2  UNL     1      26.865   5.440  48.709  1.00  0.00    -0.347 OA
BRANCH  28  29
HETATM   29  C12 UNL     1      27.555   6.623  48.377  1.00  0.00     0.207 C 
BRANCH  29  30
HETATM   30  C13 UNL     1      28.995   6.335  48.027  1.00  0.00     0.248 C 
HETATM   31  F1  UNL     1      29.275   4.997  47.957  1.00  0.00    -0.253 F 
ENDBRANCH  29  30
ENDBRANCH  28  29
ENDBRANCH   9  28
TORSDOF 7
ENDMDL
