MODEL 1
REMARK VINA RESULT:      -9.4      0.000      0.000
REMARK  3 active torsions:
REMARK  status: ('A' for Active; 'I' for Inactive)
REMARK    1  A    between atoms: C4_7  and  C5_8 
REMARK       I    between atoms: C5_8  and  N2_10 
REMARK    2  A    between atoms: N2_10  and  C6_11 
REMARK    3  A    between atoms: C11_18  and  N5_19 
ROOT
HETATM    1  C6  UNL     1      23.852  -0.248  54.164  1.00  0.00     0.036 C 
HETATM    2  C7  UNL     1      23.224   0.524  53.259  1.00  0.00     0.044 C 
HETATM    3  C8  UNL     1      21.782   0.444  53.050  1.00  0.00     0.039 A 
HETATM    4  C9  UNL     1      20.880  -0.521  53.441  1.00  0.00     0.073 A 
HETATM    5  N3  UNL     1      19.578  -0.366  53.110  1.00  0.00    -0.243 NA
HETATM    6  C10 UNL     1      19.194   0.723  52.410  1.00  0.00     0.235 A 
HETATM    7  N4  UNL     1      20.079   1.675  52.024  1.00  0.00    -0.224 NA
HETATM    8  C11 UNL     1      21.391   1.557  52.335  1.00  0.00     0.140 A 
HETATM    9  C19 UNL     1      21.257  -1.742  54.222  1.00  0.00     0.228 C 
HETATM   10  O4  UNL     1      21.991  -1.249  55.319  1.00  0.00    -0.379 OA
HETATM   11  C20 UNL     1      23.363  -1.271  55.093  1.00  0.00     0.225 C 
ENDROOT
BRANCH   1  12
HETATM   12  N2  UNL     1      25.248  -0.007  54.204  1.00  0.00    -0.327 N 
HETATM   13  C5  UNL     1      26.207  -0.664  53.385  1.00  0.00     0.247 C 
HETATM   14  O3  UNL     1      25.760  -1.518  52.573  1.00  0.00    -0.271 OA
HETATM   15  H7  UNL     1      25.439   0.736  54.940  1.00  0.00     0.168 HD
BRANCH  13  16
HETATM   16  C4  UNL     1      27.581  -0.191  53.667  1.00  0.00     0.208 C 
HETATM   17  C2  UNL     1      28.133   0.646  52.508  1.00  0.00     0.161 C 
HETATM   18  C1  UNL     1      27.212   1.820  52.222  1.00  0.00     0.043 C 
HETATM   19  O1  UNL     1      29.287   1.182  53.131  1.00  0.00    -0.296 OA
HETATM   20  C3  UNL     1      28.872   1.481  54.443  1.00  0.00     0.361 C 
HETATM   21  O2  UNL     1      29.519   2.263  55.213  1.00  0.00    -0.238 OA
HETATM   22  N1  UNL     1      27.648   0.769  54.724  1.00  0.00    -0.321 N 
HETATM   23  H5  UNL     1      27.032   0.980  55.528  1.00  0.00     0.165 HD
ENDBRANCH  13  16
ENDBRANCH   1  12
BRANCH   8  24
HETATM   24  N5  UNL     1      22.233   2.630  51.889  1.00  0.00    -0.356 N 
HETATM   25  C12 UNL     1      23.191   3.521  52.562  1.00  0.00     0.153 C 
HETATM   26  C13 UNL     1      24.295   3.836  51.645  1.00  0.00     0.013 C 
HETATM   27  C14 UNL     1      24.192   3.990  50.326  1.00  0.00     0.015 C 
HETATM   28 CL1  UNL     1      25.551   4.371  49.260  1.00  0.00    -0.089 Cl
HETATM   29  C15 UNL     1      22.826   3.817  49.782  1.00  0.00     0.048 C 
HETATM   30  C16 UNL     1      22.173   5.184  49.762  1.00  0.00     0.018 C 
HETATM   31  C17 UNL     1      22.013   2.784  50.455  1.00  0.00     0.091 C 
HETATM   32  C18 UNL     1      22.262   1.413  49.812  1.00  0.00     0.033 C 
ENDBRANCH   8  24
TORSDOF 3
ENDMDL
MODEL 2
REMARK VINA RESULT:      -8.8      1.574      2.265
REMARK  3 active torsions:
REMARK  status: ('A' for Active; 'I' for Inactive)
REMARK    1  A    between atoms: C4_7  and  C5_8 
REMARK       I    between atoms: C5_8  and  N2_10 
REMARK    2  A    between atoms: N2_10  and  C6_11 
REMARK    3  A    between atoms: C11_18  and  N5_19 
ROOT
HETATM    1  C6  UNL     1      23.345  -0.511  53.267  1.00  0.00     0.036 C 
HETATM    2  C7  UNL     1      22.720   0.074  52.230  1.00  0.00     0.044 C 
HETATM    3  C8  UNL     1      21.278   0.301  52.230  1.00  0.00     0.039 A 
HETATM    4  C9  UNL     1      20.296  -0.233  53.034  1.00  0.00     0.073 A 
HETATM    5  N3  UNL     1      19.012   0.137  52.824  1.00  0.00    -0.243 NA
HETATM    6  C10 UNL     1      18.725   1.014  51.838  1.00  0.00     0.235 A 
HETATM    7  N4  UNL     1      19.689   1.541  51.045  1.00  0.00    -0.224 NA
HETATM    8  C11 UNL     1      20.987   1.197  51.223  1.00  0.00     0.140 A 
HETATM    9  C19 UNL     1      20.566  -1.204  54.142  1.00  0.00     0.228 C 
HETATM   10  O4  UNL     1      21.582  -0.597  54.906  1.00  0.00    -0.379 OA
HETATM   11  C20 UNL     1      22.851  -1.035  54.544  1.00  0.00     0.225 C 
ENDROOT
BRANCH   1  12
HETATM   12  N2  UNL     1      24.741  -0.632  53.058  1.00  0.00    -0.327 N 
HETATM   13  C5  UNL     1      25.673   0.436  53.161  1.00  0.00     0.247 C 
HETATM   14  O3  UNL     1      25.199   1.566  53.461  1.00  0.00    -0.271 OA
HETATM   15  H7  UNL     1      24.956  -1.646  52.816  1.00  0.00     0.168 HD
BRANCH  13  16
HETATM   16  C4  UNL     1      27.055  -0.015  52.883  1.00  0.00     0.208 C 
HETATM   17  C2  UNL     1      28.050   0.585  53.883  1.00  0.00     0.161 C 
HETATM   18  C1  UNL     1      27.645   0.228  55.304  1.00  0.00     0.043 C 
HETATM   19  O1  UNL     1      29.191  -0.198  53.581  1.00  0.00    -0.296 OA
HETATM   20  C3  UNL     1      28.682  -1.493  53.363  1.00  0.00     0.361 C 
HETATM   21  O2  UNL     1      29.413  -2.537  53.382  1.00  0.00    -0.238 OA
HETATM   22  N1  UNL     1      27.260  -1.408  53.130  1.00  0.00    -0.321 N 
HETATM   23  H5  UNL     1      26.623  -2.223  53.156  1.00  0.00     0.165 HD
ENDBRANCH  13  16
ENDBRANCH   1  12
BRANCH   8  24
HETATM   24  N5  UNL     1      21.922   1.828  50.337  1.00  0.00    -0.356 N 
HETATM   25  C12 UNL     1      22.235   1.672  48.907  1.00  0.00     0.153 C 
HETATM   26  C13 UNL     1      22.615   2.974  48.344  1.00  0.00     0.013 C 
HETATM   27  C14 UNL     1      23.286   3.933  48.981  1.00  0.00     0.015 C 
HETATM   28 CL1  UNL     1      23.723   5.488  48.260  1.00  0.00    -0.089 Cl
HETATM   29  C15 UNL     1      23.658   3.612  50.378  1.00  0.00     0.048 C 
HETATM   30  C16 UNL     1      25.037   2.987  50.344  1.00  0.00     0.018 C 
HETATM   31  C17 UNL     1      22.664   2.810  51.119  1.00  0.00     0.091 C 
HETATM   32  C18 UNL     1      21.630   3.731  51.782  1.00  0.00     0.033 C 
ENDBRANCH   8  24
TORSDOF 3
ENDMDL
MODEL 3
REMARK VINA RESULT:      -8.7      2.885      5.245
REMARK  3 active torsions:
REMARK  status: ('A' for Active; 'I' for Inactive)
REMARK    1  A    between atoms: C4_7  and  C5_8 
REMARK       I    between atoms: C5_8  and  N2_10 
REMARK    2  A    between atoms: N2_10  and  C6_11 
REMARK    3  A    between atoms: C11_18  and  N5_19 
ROOT
HETATM    1  C6  UNL     1      24.819   4.041  50.785  1.00  0.00     0.036 C 
HETATM    2  C7  UNL     1      23.543   3.627  50.693  1.00  0.00     0.044 C 
HETATM    3  C8  UNL     1      22.655   4.105  49.637  1.00  0.00     0.039 A 
HETATM    4  C9  UNL     1      22.786   5.180  48.786  1.00  0.00     0.073 A 
HETATM    5  N3  UNL     1      21.804   5.420  47.887  1.00  0.00    -0.243 NA
HETATM    6  C10 UNL     1      20.727   4.606  47.844  1.00  0.00     0.235 A 
HETATM    7  N4  UNL     1      20.596   3.547  48.680  1.00  0.00    -0.224 NA
HETATM    8  C11 UNL     1      21.556   3.272  49.594  1.00  0.00     0.140 A 
HETATM    9  C19 UNL     1      23.962   6.107  48.793  1.00  0.00     0.228 C 
HETATM   10  O4  UNL     1      25.084   5.256  48.723  1.00  0.00    -0.379 OA
HETATM   11  C20 UNL     1      25.613   4.972  49.977  1.00  0.00     0.225 C 
ENDROOT
BRANCH   1  12
HETATM   12  N2  UNL     1      25.500   3.454  51.881  1.00  0.00    -0.327 N 
HETATM   13  C5  UNL     1      26.521   2.472  51.770  1.00  0.00     0.247 C 
HETATM   14  O3  UNL     1      26.828   2.113  50.600  1.00  0.00    -0.271 OA
HETATM   15  H7  UNL     1      25.113   3.873  52.779  1.00  0.00     0.168 HD
BRANCH  13  16
HETATM   16  C4  UNL     1      27.031   2.060  53.097  1.00  0.00     0.208 C 
HETATM   17  C2  UNL     1      25.937   1.378  53.928  1.00  0.00     0.161 C 
HETATM   18  C1  UNL     1      25.375   0.183  53.175  1.00  0.00     0.043 C 
HETATM   19  O1  UNL     1      26.730   0.856  54.978  1.00  0.00    -0.296 OA
HETATM   20  C3  UNL     1      27.903   0.403  54.344  1.00  0.00     0.361 C 
HETATM   21  O2  UNL     1      28.717  -0.411  54.891  1.00  0.00    -0.238 OA
HETATM   22  N1  UNL     1      27.994   1.005  53.036  1.00  0.00    -0.321 N 
HETATM   23  H5  UNL     1      28.638   0.678  52.295  1.00  0.00     0.165 HD
ENDBRANCH  13  16
ENDBRANCH   1  12
BRANCH   8  24
HETATM   24  N5  UNL     1      21.319   2.120  50.414  1.00  0.00    -0.356 N 
HETATM   25  C12 UNL     1      22.040   0.855  50.628  1.00  0.00     0.153 C 
HETATM   26  C13 UNL     1      21.880   0.427  52.024  1.00  0.00     0.013 C 
HETATM   27  C14 UNL     1      20.792   0.605  52.773  1.00  0.00     0.015 C 
HETATM   28 CL1  UNL     1      20.644   0.073  54.453  1.00  0.00    -0.089 Cl
HETATM   29  C15 UNL     1      19.675   1.301  52.095  1.00  0.00     0.048 C 
HETATM   30  C16 UNL     1      18.794   0.236  51.474  1.00  0.00     0.018 C 
HETATM   31  C17 UNL     1      20.081   2.358  51.147  1.00  0.00     0.091 C 
HETATM   32  C18 UNL     1      20.244   3.694  51.885  1.00  0.00     0.033 C 
ENDBRANCH   8  24
TORSDOF 3
ENDMDL
MODEL 4
REMARK VINA RESULT:      -8.5      2.733      4.011
REMARK  3 active torsions:
REMARK  status: ('A' for Active; 'I' for Inactive)
REMARK    1  A    between atoms: C4_7  and  C5_8 
REMARK       I    between atoms: C5_8  and  N2_10 
REMARK    2  A    between atoms: N2_10  and  C6_11 
REMARK    3  A    between atoms: C11_18  and  N5_19 
ROOT
HETATM    1  C6  UNL     1      22.090   2.658  52.065  1.00  0.00     0.036 C 
HETATM    2  C7  UNL     1      22.205   3.647  51.160  1.00  0.00     0.044 C 
HETATM    3  C8  UNL     1      21.039   4.363  50.652  1.00  0.00     0.039 A 
HETATM    4  C9  UNL     1      19.702   4.043  50.722  1.00  0.00     0.073 A 
HETATM    5  N3  UNL     1      18.803   4.881  50.155  1.00  0.00    -0.243 NA
HETATM    6  C10 UNL     1      19.235   6.003  49.541  1.00  0.00     0.235 A 
HETATM    7  N4  UNL     1      20.551   6.321  49.472  1.00  0.00    -0.224 NA
HETATM    8  C11 UNL     1      21.482   5.509  50.025  1.00  0.00     0.140 A 
HETATM    9  C19 UNL     1      19.175   2.814  51.396  1.00  0.00     0.228 C 
HETATM   10  O4  UNL     1      19.767   2.830  52.675  1.00  0.00    -0.379 OA
HETATM   11  C20 UNL     1      20.927   2.066  52.732  1.00  0.00     0.225 C 
ENDROOT
BRANCH   1  12
HETATM   12  N2  UNL     1      23.344   2.101  52.419  1.00  0.00    -0.327 N 
HETATM   13  C5  UNL     1      24.367   2.789  53.127  1.00  0.00     0.247 C 
HETATM   14  O3  UNL     1      24.117   3.982  53.453  1.00  0.00    -0.271 OA
HETATM   15  H7  UNL     1      23.376   1.098  52.066  1.00  0.00     0.168 HD
BRANCH  13  16
HETATM   16  C4  UNL     1      25.555   1.933  53.341  1.00  0.00     0.208 C 
HETATM   17  C2  UNL     1      26.140   1.447  52.010  1.00  0.00     0.161 C 
HETATM   18  C1  UNL     1      26.488   2.633  51.126  1.00  0.00     0.043 C 
HETATM   19  O1  UNL     1      27.369   0.916  52.472  1.00  0.00    -0.296 OA
HETATM   20  C3  UNL     1      27.799   1.826  53.457  1.00  0.00     0.361 C 
HETATM   21  O2  UNL     1      29.001   1.875  53.878  1.00  0.00    -0.238 OA
HETATM   22  N1  UNL     1      26.680   2.640  53.868  1.00  0.00    -0.321 N 
HETATM   23  H5  UNL     1      26.774   3.514  54.414  1.00  0.00     0.165 HD
ENDBRANCH  13  16
ENDBRANCH   1  12
BRANCH   8  24
HETATM   24  N5  UNL     1      22.841   5.952  49.905  1.00  0.00    -0.356 N 
HETATM   25  C12 UNL     1      23.876   6.342  50.875  1.00  0.00     0.153 C 
HETATM   26  C13 UNL     1      25.196   5.938  50.375  1.00  0.00     0.013 C 
HETATM   27  C14 UNL     1      25.577   5.930  49.098  1.00  0.00     0.015 C 
HETATM   28 CL1  UNL     1      27.180   5.435  48.540  1.00  0.00    -0.089 Cl
HETATM   29  C15 UNL     1      24.542   6.375  48.136  1.00  0.00     0.048 C 
HETATM   30  C16 UNL     1      24.720   7.867  47.943  1.00  0.00     0.018 C 
HETATM   31  C17 UNL     1      23.160   5.985  48.482  1.00  0.00     0.091 C 
HETATM   32  C18 UNL     1      22.847   4.593  47.917  1.00  0.00     0.033 C 
ENDBRANCH   8  24
TORSDOF 3
ENDMDL
MODEL 5
REMARK VINA RESULT:      -8.5      1.552      2.089
REMARK  3 active torsions:
REMARK  status: ('A' for Active; 'I' for Inactive)
REMARK    1  A    between atoms: C4_7  and  C5_8 
REMARK       I    between atoms: C5_8  and  N2_10 
REMARK    2  A    between atoms: N2_10  and  C6_11 
REMARK    3  A    between atoms: C11_18  and  N5_19 
ROOT
HETATM    1  C6  UNL     1      22.147  -0.165  52.940  1.00  0.00     0.036 C 
HETATM    2  C7  UNL     1      22.075   0.870  52.085  1.00  0.00     0.044 C 
HETATM    3  C8  UNL     1      20.799   1.474  51.715  1.00  0.00     0.039 A 
HETATM    4  C9  UNL     1      19.515   1.002  51.876  1.00  0.00     0.073 A 
HETATM    5  N3  UNL     1      18.484   1.758  51.432  1.00  0.00    -0.243 NA
HETATM    6  C10 UNL     1      18.737   2.949  50.848  1.00  0.00     0.235 A 
HETATM    7  N4  UNL     1      19.999   3.416  50.689  1.00  0.00    -0.224 NA
HETATM    8  C11 UNL     1      21.058   2.690  51.118  1.00  0.00     0.140 A 
HETATM    9  C19 UNL     1      19.185  -0.309  52.521  1.00  0.00     0.228 C 
HETATM   10  O4  UNL     1      19.881  -0.285  53.747  1.00  0.00    -0.379 OA
HETATM   11  C20 UNL     1      21.118  -0.915  53.666  1.00  0.00     0.225 C 
ENDROOT
BRANCH   1  12
HETATM   12  N2  UNL     1      23.481  -0.593  53.159  1.00  0.00    -0.327 N 
HETATM   13  C5  UNL     1      24.523   0.228  53.669  1.00  0.00     0.247 C 
HETATM   14  O3  UNL     1      24.215   1.421  53.939  1.00  0.00    -0.271 OA
HETATM   15  H7  UNL     1      23.554  -1.617  52.877  1.00  0.00     0.168 HD
BRANCH  13  16
HETATM   16  C4  UNL     1      25.798  -0.514  53.780  1.00  0.00     0.208 C 
HETATM   17  C2  UNL     1      26.472  -0.675  52.412  1.00  0.00     0.161 C 
HETATM   18  C1  UNL     1      26.698   0.686  51.776  1.00  0.00     0.043 C 
HETATM   19  O1  UNL     1      27.743  -1.141  52.828  1.00  0.00    -0.296 OA
HETATM   20  C3  UNL     1      28.036  -0.387  53.981  1.00  0.00     0.361 C 
HETATM   21  O2  UNL     1      29.212  -0.282  54.461  1.00  0.00    -0.238 OA
HETATM   22  N1  UNL     1      26.818   0.205  54.479  1.00  0.00    -0.321 N 
HETATM   23  H5  UNL     1      26.792   0.967  55.179  1.00  0.00     0.165 HD
ENDBRANCH  13  16
ENDBRANCH   1  12
BRANCH   8  24
HETATM   24  N5  UNL     1      22.345   3.288  50.911  1.00  0.00    -0.356 N 
HETATM   25  C12 UNL     1      23.385   3.805  51.814  1.00  0.00     0.153 C 
HETATM   26  C13 UNL     1      24.710   3.554  51.231  1.00  0.00     0.013 C 
HETATM   27  C14 UNL     1      25.008   3.581  49.933  1.00  0.00     0.015 C 
HETATM   28 CL1  UNL     1      26.620   3.273  49.275  1.00  0.00    -0.089 Cl
HETATM   29  C15 UNL     1      23.869   3.894  49.039  1.00  0.00     0.048 C 
HETATM   30  C16 UNL     1      23.858   5.395  48.833  1.00  0.00     0.018 C 
HETATM   31  C17 UNL     1      22.567   3.347  49.471  1.00  0.00     0.091 C 
HETATM   32  C18 UNL     1      22.386   1.923  48.929  1.00  0.00     0.033 C 
ENDBRANCH   8  24
TORSDOF 3
ENDMDL
MODEL 6
REMARK VINA RESULT:      -8.3      3.386      5.061
REMARK  3 active torsions:
REMARK  status: ('A' for Active; 'I' for Inactive)
REMARK    1  A    between atoms: C4_7  and  C5_8 
REMARK       I    between atoms: C5_8  and  N2_10 
REMARK    2  A    between atoms: N2_10  and  C6_11 
REMARK    3  A    between atoms: C11_18  and  N5_19 
ROOT
HETATM    1  C6  UNL     1      24.804   2.673  52.376  1.00  0.00     0.036 C 
HETATM    2  C7  UNL     1      23.562   2.190  52.196  1.00  0.00     0.044 C 
HETATM    3  C8  UNL     1      23.121   0.950  52.826  1.00  0.00     0.039 A 
HETATM    4  C9  UNL     1      23.854  -0.053  53.419  1.00  0.00     0.073 A 
HETATM    5  N3  UNL     1      23.200  -1.122  53.930  1.00  0.00    -0.243 NA
HETATM    6  C10 UNL     1      21.853  -1.178  53.848  1.00  0.00     0.235 A 
HETATM    7  N4  UNL     1      21.129  -0.191  53.266  1.00  0.00    -0.224 NA
HETATM    8  C11 UNL     1      21.745   0.894  52.742  1.00  0.00     0.140 A 
HETATM    9  C19 UNL     1      25.347  -0.033  53.538  1.00  0.00     0.228 C 
HETATM   10  O4  UNL     1      25.640   1.223  54.107  1.00  0.00    -0.379 OA
HETATM   11  C20 UNL     1      25.949   2.181  53.147  1.00  0.00     0.225 C 
ENDROOT
BRANCH   1  12
HETATM   12  N2  UNL     1      25.019   3.886  51.674  1.00  0.00    -0.327 N 
HETATM   13  C5  UNL     1      25.565   3.979  50.364  1.00  0.00     0.247 C 
HETATM   14  O3  UNL     1      25.873   2.891  49.807  1.00  0.00    -0.271 OA
HETATM   15  H7  UNL     1      24.705   4.692  52.294  1.00  0.00     0.168 HD
BRANCH  13  16
HETATM   16  C4  UNL     1      25.663   5.385  49.912  1.00  0.00     0.208 C 
HETATM   17  C2  UNL     1      24.788   5.637  48.678  1.00  0.00     0.161 C 
HETATM   18  C1  UNL     1      23.344   5.269  48.975  1.00  0.00     0.043 C 
HETATM   19  O1  UNL     1      24.843   7.051  48.634  1.00  0.00    -0.296 OA
HETATM   20  C3  UNL     1      24.771   7.449  49.984  1.00  0.00     0.361 C 
HETATM   21  O2  UNL     1      24.471   8.635  50.341  1.00  0.00    -0.238 OA
HETATM   22  N1  UNL     1      25.084   6.320  50.826  1.00  0.00    -0.321 N 
HETATM   23  H5  UNL     1      24.895   6.290  51.842  1.00  0.00     0.165 HD
ENDBRANCH  13  16
ENDBRANCH   1  12
BRANCH   8  24
HETATM   24  N5  UNL     1      20.879   1.881  52.165  1.00  0.00    -0.356 N 
HETATM   25  C12 UNL     1      20.599   3.294  52.467  1.00  0.00     0.153 C 
HETATM   26  C13 UNL     1      20.320   4.016  51.220  1.00  0.00     0.013 C 
HETATM   27  C14 UNL     1      19.692   3.519  50.155  1.00  0.00     0.015 C 
HETATM   28 CL1  UNL     1      19.377   4.428  48.671  1.00  0.00    -0.089 Cl
HETATM   29  C15 UNL     1      19.259   2.109  50.288  1.00  0.00     0.048 C 
HETATM   30  C16 UNL     1      17.844   2.123  50.830  1.00  0.00     0.018 C 
HETATM   31  C17 UNL     1      20.177   1.244  51.056  1.00  0.00     0.091 C 
HETATM   32  C18 UNL     1      21.247   0.653  50.127  1.00  0.00     0.033 C 
ENDBRANCH   8  24
TORSDOF 3
ENDMDL
MODEL 7
REMARK VINA RESULT:      -7.8      3.232      6.702
REMARK  3 active torsions:
REMARK  status: ('A' for Active; 'I' for Inactive)
REMARK    1  A    between atoms: C4_7  and  C5_8 
REMARK       I    between atoms: C5_8  and  N2_10 
REMARK    2  A    between atoms: N2_10  and  C6_11 
REMARK    3  A    between atoms: C11_18  and  N5_19 
ROOT
HETATM    1  C6  UNL     1      20.652   0.542  52.986  1.00  0.00     0.036 C 
HETATM    2  C7  UNL     1      21.812   1.100  52.598  1.00  0.00     0.044 C 
HETATM    3  C8  UNL     1      23.102   0.513  52.948  1.00  0.00     0.039 A 
HETATM    4  C9  UNL     1      23.416  -0.441  53.890  1.00  0.00     0.073 A 
HETATM    5  N3  UNL     1      24.709  -0.816  54.029  1.00  0.00    -0.243 NA
HETATM    6  C10 UNL     1      25.653  -0.251  53.246  1.00  0.00     0.235 A 
HETATM    7  N4  UNL     1      25.346   0.688  52.318  1.00  0.00    -0.224 NA
HETATM    8  C11 UNL     1      24.065   1.091  52.148  1.00  0.00     0.140 A 
HETATM    9  C19 UNL     1      22.404  -1.099  54.776  1.00  0.00     0.228 C 
HETATM   10  O4  UNL     1      21.405  -1.557  53.894  1.00  0.00    -0.379 OA
HETATM   11  C20 UNL     1      20.352  -0.658  53.772  1.00  0.00     0.225 C 
ENDROOT
BRANCH   1  12
HETATM   12  N2  UNL     1      19.524   1.275  52.538  1.00  0.00    -0.327 N 
HETATM   13  C5  UNL     1      19.089   1.349  51.187  1.00  0.00     0.247 C 
HETATM   14  O3  UNL     1      19.772   0.708  50.343  1.00  0.00    -0.271 OA
HETATM   15  H7  UNL     1      19.076   1.746  53.380  1.00  0.00     0.168 HD
BRANCH  13  16
HETATM   16  C4  UNL     1      17.882   2.194  51.047  1.00  0.00     0.208 C 
HETATM   17  C2  UNL     1      18.143   3.625  51.530  1.00  0.00     0.161 C 
HETATM   18  C1  UNL     1      19.311   4.230  50.769  1.00  0.00     0.043 C 
HETATM   19  O1  UNL     1      16.973   4.257  51.041  1.00  0.00    -0.296 OA
HETATM   20  C3  UNL     1      16.759   3.674  49.777  1.00  0.00     0.361 C 
HETATM   21  O2  UNL     1      16.003   4.193  48.893  1.00  0.00    -0.238 OA
HETATM   22  N1  UNL     1      17.518   2.449  49.688  1.00  0.00    -0.321 N 
HETATM   23  H5  UNL     1      17.702   1.949  48.802  1.00  0.00     0.165 HD
ENDBRANCH  13  16
ENDBRANCH   1  12
BRANCH   8  24
HETATM   24  N5  UNL     1      23.856   2.077  51.128  1.00  0.00    -0.356 N 
HETATM   25  C12 UNL     1      23.082   2.101  49.877  1.00  0.00     0.153 C 
HETATM   26  C13 UNL     1      22.558   3.455  49.650  1.00  0.00     0.013 C 
HETATM   27  C14 UNL     1      23.173   4.592  49.970  1.00  0.00     0.015 C 
HETATM   28 CL1  UNL     1      22.502   6.202  49.677  1.00  0.00    -0.089 Cl
HETATM   29  C15 UNL     1      24.498   4.426  50.609  1.00  0.00     0.048 C 
HETATM   30  C16 UNL     1      25.535   4.443  49.504  1.00  0.00     0.018 C 
HETATM   31  C17 UNL     1      24.615   3.262  51.511  1.00  0.00     0.091 C 
HETATM   32  C18 UNL     1      24.166   3.646  52.928  1.00  0.00     0.033 C 
ENDBRANCH   8  24
TORSDOF 3
ENDMDL
MODEL 8
REMARK VINA RESULT:      -7.7      3.625      5.188
REMARK  3 active torsions:
REMARK  status: ('A' for Active; 'I' for Inactive)
REMARK    1  A    between atoms: C4_7  and  C5_8 
REMARK       I    between atoms: C5_8  and  N2_10 
REMARK    2  A    between atoms: N2_10  and  C6_11 
REMARK    3  A    between atoms: C11_18  and  N5_19 
ROOT
HETATM    1  C6  UNL     1      25.622   2.348  51.581  1.00  0.00     0.036 C 
HETATM    2  C7  UNL     1      24.426   1.780  51.343  1.00  0.00     0.044 C 
HETATM    3  C8  UNL     1      23.801   0.877  52.304  1.00  0.00     0.039 A 
HETATM    4  C9  UNL     1      24.339   0.226  53.392  1.00  0.00     0.073 A 
HETATM    5  N3  UNL     1      23.540  -0.576  54.131  1.00  0.00    -0.243 NA
HETATM    6  C10 UNL     1      22.241  -0.720  53.788  1.00  0.00     0.235 A 
HETATM    7  N4  UNL     1      21.708  -0.081  52.718  1.00  0.00    -0.224 NA
HETATM    8  C11 UNL     1      22.475   0.731  51.953  1.00  0.00     0.140 A 
HETATM    9  C19 UNL     1      25.771   0.358  53.814  1.00  0.00     0.228 C 
HETATM   10  O4  UNL     1      25.993   1.748  53.884  1.00  0.00    -0.379 OA
HETATM   11  C20 UNL     1      26.547   2.256  52.714  1.00  0.00     0.225 C 
ENDROOT
BRANCH   1  12
HETATM   12  N2  UNL     1      26.042   3.188  50.519  1.00  0.00    -0.327 N 
HETATM   13  C5  UNL     1      25.488   4.464  50.226  1.00  0.00     0.247 C 
HETATM   14  O3  UNL     1      24.556   4.856  50.979  1.00  0.00    -0.271 OA
HETATM   15  H7  UNL     1      26.828   2.697  49.996  1.00  0.00     0.168 HD
BRANCH  13  16
HETATM   16  C4  UNL     1      26.143   5.088  49.055  1.00  0.00     0.208 C 
HETATM   17  C2  UNL     1      25.693   6.542  48.872  1.00  0.00     0.161 C 
HETATM   18  C1  UNL     1      25.976   7.341  50.133  1.00  0.00     0.043 C 
HETATM   19  O1  UNL     1      26.640   6.963  47.907  1.00  0.00    -0.296 OA
HETATM   20  C3  UNL     1      27.845   6.354  48.306  1.00  0.00     0.361 C 
HETATM   21  O2  UNL     1      28.987   6.737  47.889  1.00  0.00    -0.238 OA
HETATM   22  N1  UNL     1      27.550   5.280  49.223  1.00  0.00    -0.321 N 
HETATM   23  H5  UNL     1      28.259   4.820  49.819  1.00  0.00     0.165 HD
ENDBRANCH  13  16
ENDBRANCH   1  12
BRANCH   8  24
HETATM   24  N5  UNL     1      21.802   1.366  50.857  1.00  0.00    -0.356 N 
HETATM   25  C12 UNL     1      21.443   0.938  49.495  1.00  0.00     0.153 C 
HETATM   26  C13 UNL     1      20.168   1.555  49.107  1.00  0.00     0.013 C 
HETATM   27  C14 UNL     1      19.753   2.772  49.457  1.00  0.00     0.015 C 
HETATM   28 CL1  UNL     1      18.207   3.475  48.964  1.00  0.00    -0.089 Cl
HETATM   29  C15 UNL     1      20.693   3.528  50.316  1.00  0.00     0.048 C 
HETATM   30  C16 UNL     1      21.580   4.345  49.399  1.00  0.00     0.018 C 
HETATM   31  C17 UNL     1      21.443   2.711  51.291  1.00  0.00     0.091 C 
HETATM   32  C18 UNL     1      20.637   2.566  52.589  1.00  0.00     0.033 C 
ENDBRANCH   8  24
TORSDOF 3
ENDMDL
MODEL 9
REMARK VINA RESULT:      -7.5      4.402      6.640
REMARK  3 active torsions:
REMARK  status: ('A' for Active; 'I' for Inactive)
REMARK    1  A    between atoms: C4_7  and  C5_8 
REMARK       I    between atoms: C5_8  and  N2_10 
REMARK    2  A    between atoms: N2_10  and  C6_11 
REMARK    3  A    between atoms: C11_18  and  N5_19 
ROOT
HETATM    1  C6  UNL     1      24.091   4.662  49.087  1.00  0.00     0.036 C 
HETATM    2  C7  UNL     1      24.108   3.789  50.111  1.00  0.00     0.044 C 
HETATM    3  C8  UNL     1      22.917   3.042  50.502  1.00  0.00     0.039 A 
HETATM    4  C9  UNL     1      21.594   3.247  50.176  1.00  0.00     0.073 A 
HETATM    5  N3  UNL     1      20.663   2.407  50.683  1.00  0.00    -0.243 NA
HETATM    6  C10 UNL     1      21.048   1.395  51.490  1.00  0.00     0.235 A 
HETATM    7  N4  UNL     1      22.349   1.191  51.812  1.00  0.00    -0.224 NA
HETATM    8  C11 UNL     1      23.312   2.009  51.326  1.00  0.00     0.140 A 
HETATM    9  C19 UNL     1      21.120   4.351  49.283  1.00  0.00     0.228 C 
HETATM   10  O4  UNL     1      21.922   4.243  48.129  1.00  0.00    -0.379 OA
HETATM   11  C20 UNL     1      23.028   5.085  48.172  1.00  0.00     0.225 C 
ENDROOT
BRANCH   1  12
HETATM   12  N2  UNL     1      25.353   5.275  48.880  1.00  0.00    -0.327 N 
HETATM   13  C5  UNL     1      25.778   6.485  49.494  1.00  0.00     0.247 C 
HETATM   14  O3  UNL     1      24.955   7.035  50.275  1.00  0.00    -0.271 OA
HETATM   15  H7  UNL     1      25.908   4.676  48.197  1.00  0.00     0.168 HD
BRANCH  13  16
HETATM   16  C4  UNL     1      27.145   6.861  49.072  1.00  0.00     0.208 C 
HETATM   17  C2  UNL     1      27.171   7.326  47.611  1.00  0.00     0.161 C 
HETATM   18  C1  UNL     1      26.212   8.487  47.413  1.00  0.00     0.043 C 
HETATM   19  O1  UNL     1      28.478   7.869  47.559  1.00  0.00    -0.296 OA
HETATM   20  C3  UNL     1      28.639   8.521  48.797  1.00  0.00     0.361 C 
HETATM   21  O2  UNL     1      29.543   9.393  49.009  1.00  0.00    -0.238 OA
HETATM   22  N1  UNL     1      27.639   8.036  49.718  1.00  0.00    -0.321 N 
HETATM   23  H5  UNL     1      27.407   8.501  50.613  1.00  0.00     0.165 HD
ENDBRANCH  13  16
ENDBRANCH   1  12
BRANCH   8  24
HETATM   24  N5  UNL     1      24.653   1.690  51.720  1.00  0.00    -0.356 N 
HETATM   25  C12 UNL     1      25.855   1.257  50.990  1.00  0.00     0.153 C 
HETATM   26  C13 UNL     1      27.050   1.822  51.631  1.00  0.00     0.013 C 
HETATM   27  C14 UNL     1      27.211   2.024  52.938  1.00  0.00     0.015 C 
HETATM   28 CL1  UNL     1      28.670   2.708  53.667  1.00  0.00    -0.089 Cl
HETATM   29  C15 UNL     1      26.056   1.630  53.777  1.00  0.00     0.048 C 
HETATM   30  C16 UNL     1      26.279   0.193  54.203  1.00  0.00     0.018 C 
HETATM   31  C17 UNL     1      24.732   1.865  53.166  1.00  0.00     0.091 C 
HETATM   32  C18 UNL     1      24.255   3.291  53.474  1.00  0.00     0.033 C 
ENDBRANCH   8  24
TORSDOF 3
ENDMDL
