MODEL 1
REMARK VINA RESULT:      -8.5      0.000      0.000
REMARK  4 active torsions:
REMARK  status: ('A' for Active; 'I' for Inactive)
REMARK    1  A    between atoms: C2_2  and  C3_4 
REMARK    2  A    between atoms: C4_5  and  C5_6 
REMARK    3  A    between atoms: C5_6  and  N1_7 
REMARK    4  A    between atoms: N1_7  and  C6_8 
ROOT
HETATM    1  C6  UNL     1      24.807   2.069  53.231  1.00  0.00     0.154 A 
HETATM    2  N2  UNL     1      23.947   1.079  53.022  1.00  0.00    -0.222 NA
HETATM    3  C7  UNL     1      24.193  -0.236  53.156  1.00  0.00     0.236 A 
HETATM    4  N3  UNL     1      25.427  -0.739  53.545  1.00  0.00    -0.239 NA
HETATM    5  C8  UNL     1      26.284   0.309  53.751  1.00  0.00     0.098 A 
HETATM    6  C9  UNL     1      26.054   1.750  53.613  1.00  0.00     0.104 A 
HETATM    7  N4  UNL     1      27.192   2.663  53.833  1.00  0.00    -0.384 N 
HETATM    8  C10 UNL     1      28.573   2.226  53.563  1.00  0.00     0.129 C 
HETATM    9  C11 UNL     1      29.148   1.045  54.173  1.00  0.00     0.030 C 
HETATM   10  C12 UNL     1      28.362   0.271  55.167  1.00  0.00    -0.007 C 
HETATM   11  C13 UNL     1      27.621  -0.249  54.150  1.00  0.00    -0.009 C 
HETATM   12  C14 UNL     1      28.058  -1.230  53.084  1.00  0.00     0.009 C 
HETATM   13  C15 UNL     1      29.371  -1.392  53.414  1.00  0.00    -0.025 C 
HETATM   14  C16 UNL     1      29.931   0.057  53.342  1.00  0.00     0.037 C 
HETATM   15  H9  UNL     1      26.697   3.514  54.161  1.00  0.00     0.159 HD
ENDROOT
BRANCH   1  16
HETATM   16  N1  UNL     1      24.679   3.441  53.122  1.00  0.00    -0.362 N 
HETATM   17  H7  UNL     1      24.959   4.282  53.621  1.00  0.00     0.162 HD
BRANCH  16  18
HETATM   18  C5  UNL     1      23.929   3.766  51.941  1.00  0.00     0.215 C 
BRANCH  18  19
HETATM   19  C4  UNL     1      24.716   4.337  50.853  1.00  0.00    -0.086 C 
HETATM   20  C3  UNL     1      25.364   4.825  49.971  1.00  0.00    -0.089 C 
BRANCH  20  21
HETATM   21  C2  UNL     1      26.180   5.437  48.901  1.00  0.00     0.133 C 
HETATM   22  C1  UNL     1      27.501   4.712  48.730  1.00  0.00     0.035 C 
HETATM   23 BR1  UNL     1      26.446   7.308  49.310  1.00  0.00    -0.078 Br
ENDBRANCH  20  21
ENDBRANCH  18  19
ENDBRANCH  16  18
ENDBRANCH   1  16
TORSDOF 4
ENDMDL
MODEL 2
REMARK VINA RESULT:      -8.0      2.078      2.129
REMARK  4 active torsions:
REMARK  status: ('A' for Active; 'I' for Inactive)
REMARK    1  A    between atoms: C2_2  and  C3_4 
REMARK    2  A    between atoms: C4_5  and  C5_6 
REMARK    3  A    between atoms: C5_6  and  N1_7 
REMARK    4  A    between atoms: N1_7  and  C6_8 
ROOT
HETATM    1  C6  UNL     1      24.864   2.149  53.309  1.00  0.00     0.154 A 
HETATM    2  N2  UNL     1      23.975   1.184  53.103  1.00  0.00    -0.222 NA
HETATM    3  C7  UNL     1      24.188  -0.138  53.222  1.00  0.00     0.236 A 
HETATM    4  N3  UNL     1      25.414  -0.677  53.589  1.00  0.00    -0.239 NA
HETATM    5  C8  UNL     1      26.301   0.346  53.792  1.00  0.00     0.098 A 
HETATM    6  C9  UNL     1      26.107   1.794  53.670  1.00  0.00     0.104 A 
HETATM    7  N4  UNL     1      27.272   2.674  53.882  1.00  0.00    -0.384 N 
HETATM    8  C10 UNL     1      28.637   2.204  53.589  1.00  0.00     0.129 C 
HETATM    9  C11 UNL     1      29.189   1.002  54.181  1.00  0.00     0.030 C 
HETATM   10  C12 UNL     1      28.397   0.240  55.179  1.00  0.00    -0.007 C 
HETATM   11  C13 UNL     1      27.629  -0.251  54.167  1.00  0.00    -0.009 C 
HETATM   12  C14 UNL     1      28.024  -1.233  53.088  1.00  0.00     0.009 C 
HETATM   13  C15 UNL     1      29.337  -1.433  53.397  1.00  0.00    -0.025 C 
HETATM   14  C16 UNL     1      29.934   0.001  53.330  1.00  0.00     0.037 C 
HETATM   15  H9  UNL     1      26.804   3.535  54.225  1.00  0.00     0.159 HD
ENDROOT
BRANCH   1  16
HETATM   16  N1  UNL     1      24.771   3.525  53.213  1.00  0.00    -0.362 N 
HETATM   17  H7  UNL     1      25.331   4.350  53.418  1.00  0.00     0.162 HD
BRANCH  16  18
HETATM   18  C5  UNL     1      23.502   3.887  52.647  1.00  0.00     0.215 C 
BRANCH  18  19
HETATM   19  C4  UNL     1      23.416   3.748  51.197  1.00  0.00    -0.086 C 
HETATM   20  C3  UNL     1      23.330   3.617  50.009  1.00  0.00    -0.089 C 
BRANCH  20  21
HETATM   21  C2  UNL     1      23.198   3.455  48.546  1.00  0.00     0.133 C 
HETATM   22  C1  UNL     1      22.636   4.706  47.899  1.00  0.00     0.035 C 
HETATM   23 BR1  UNL     1      22.091   1.912  48.184  1.00  0.00    -0.078 Br
ENDBRANCH  20  21
ENDBRANCH  18  19
ENDBRANCH  16  18
ENDBRANCH   1  16
TORSDOF 4
ENDMDL
MODEL 3
REMARK VINA RESULT:      -7.4      2.008      4.462
REMARK  4 active torsions:
REMARK  status: ('A' for Active; 'I' for Inactive)
REMARK    1  A    between atoms: C2_2  and  C3_4 
REMARK    2  A    between atoms: C4_5  and  C5_6 
REMARK    3  A    between atoms: C5_6  and  N1_7 
REMARK    4  A    between atoms: N1_7  and  C6_8 
ROOT
HETATM    1  C6  UNL     1      25.881   1.719  52.094  1.00  0.00     0.154 A 
HETATM    2  N2  UNL     1      26.826   0.888  52.516  1.00  0.00    -0.222 NA
HETATM    3  C7  UNL     1      26.636  -0.304  53.110  1.00  0.00     0.236 A 
HETATM    4  N3  UNL     1      25.376  -0.831  53.364  1.00  0.00    -0.239 NA
HETATM    5  C8  UNL     1      24.432   0.053  52.915  1.00  0.00     0.098 A 
HETATM    6  C9  UNL     1      24.600   1.358  52.267  1.00  0.00     0.104 A 
HETATM    7  N4  UNL     1      23.390   2.139  51.948  1.00  0.00    -0.384 N 
HETATM    8  C10 UNL     1      22.166   2.001  52.756  1.00  0.00     0.129 C 
HETATM    9  C11 UNL     1      21.521   0.723  52.978  1.00  0.00     0.030 C 
HETATM   10  C12 UNL     1      22.051  -0.496  52.315  1.00  0.00    -0.007 C 
HETATM   11  C13 UNL     1      23.074  -0.518  53.214  1.00  0.00    -0.009 C 
HETATM   12  C14 UNL     1      23.009  -0.823  54.694  1.00  0.00     0.009 C 
HETATM   13  C15 UNL     1      21.669  -1.017  54.853  1.00  0.00    -0.025 C 
HETATM   14  C16 UNL     1      21.060   0.326  54.360  1.00  0.00     0.037 C 
HETATM   15  H9  UNL     1      23.721   2.683  51.128  1.00  0.00     0.159 HD
ENDROOT
BRANCH   1  16
HETATM   16  N1  UNL     1      25.947   2.958  51.484  1.00  0.00    -0.362 N 
HETATM   17  H7  UNL     1      25.753   3.933  51.700  1.00  0.00     0.162 HD
BRANCH  16  18
HETATM   18  C5  UNL     1      26.446   2.814  50.145  1.00  0.00     0.215 C 
BRANCH  18  19
HETATM   19  C4  UNL     1      26.732   4.069  49.460  1.00  0.00    -0.086 C 
HETATM   20  C3  UNL     1      26.958   5.112  48.913  1.00  0.00    -0.089 C 
BRANCH  20  21
HETATM   21  C2  UNL     1      27.243   6.408  48.262  1.00  0.00     0.133 C 
HETATM   22  C1  UNL     1      28.719   6.556  47.946  1.00  0.00     0.035 C 
HETATM   23 BR1  UNL     1      26.617   7.835  49.407  1.00  0.00    -0.078 Br
ENDBRANCH  20  21
ENDBRANCH  18  19
ENDBRANCH  16  18
ENDBRANCH   1  16
TORSDOF 4
ENDMDL
MODEL 4
REMARK VINA RESULT:      -7.2      4.246      6.195
REMARK  4 active torsions:
REMARK  status: ('A' for Active; 'I' for Inactive)
REMARK    1  A    between atoms: C2_2  and  C3_4 
REMARK    2  A    between atoms: C4_5  and  C5_6 
REMARK    3  A    between atoms: C5_6  and  N1_7 
REMARK    4  A    between atoms: N1_7  and  C6_8 
ROOT
HETATM    1  C6  UNL     1      22.892   1.621  52.552  1.00  0.00     0.154 A 
HETATM    2  N2  UNL     1      22.973   2.786  51.919  1.00  0.00    -0.222 NA
HETATM    3  C7  UNL     1      24.092   3.364  51.449  1.00  0.00     0.236 A 
HETATM    4  N3  UNL     1      25.350   2.790  51.573  1.00  0.00    -0.239 NA
HETATM    5  C8  UNL     1      25.225   1.594  52.229  1.00  0.00     0.098 A 
HETATM    6  C9  UNL     1      24.027   0.934  52.757  1.00  0.00     0.104 A 
HETATM    7  N4  UNL     1      24.195  -0.334  53.491  1.00  0.00    -0.384 N 
HETATM    8  C10 UNL     1      25.438  -0.620  54.229  1.00  0.00     0.129 C 
HETATM    9  C11 UNL     1      26.742  -0.584  53.600  1.00  0.00     0.030 C 
HETATM   10  C12 UNL     1      26.851  -0.324  52.142  1.00  0.00    -0.007 C 
HETATM   11  C13 UNL     1      26.595   0.993  52.376  1.00  0.00    -0.009 C 
HETATM   12  C14 UNL     1      27.481   2.007  53.064  1.00  0.00     0.009 C 
HETATM   13  C15 UNL     1      28.546   1.225  53.401  1.00  0.00    -0.025 C 
HETATM   14  C16 UNL     1      27.900   0.112  54.274  1.00  0.00     0.037 C 
HETATM   15  H9  UNL     1      23.281  -0.789  53.303  1.00  0.00     0.159 HD
ENDROOT
BRANCH   1  16
HETATM   16  N1  UNL     1      21.818   0.933  53.084  1.00  0.00    -0.362 N 
HETATM   17  H7  UNL     1      21.510   0.559  53.979  1.00  0.00     0.162 HD
BRANCH  16  18
HETATM   18  C5  UNL     1      20.847   0.679  52.056  1.00  0.00     0.215 C 
BRANCH  18  19
HETATM   19  C4  UNL     1      19.667  -0.056  52.496  1.00  0.00    -0.086 C 
HETATM   20  C3  UNL     1      18.698  -0.650  52.878  1.00  0.00    -0.089 C 
BRANCH  20  21
HETATM   21  C2  UNL     1      17.494  -1.360  53.359  1.00  0.00     0.133 C 
HETATM   22  C1  UNL     1      17.801  -2.809  53.688  1.00  0.00     0.035 C 
HETATM   23 BR1  UNL     1      16.106  -1.217  52.020  1.00  0.00    -0.078 Br
ENDBRANCH  20  21
ENDBRANCH  18  19
ENDBRANCH  16  18
ENDBRANCH   1  16
TORSDOF 4
ENDMDL
MODEL 5
REMARK VINA RESULT:      -6.9      2.996      5.107
REMARK  4 active torsions:
REMARK  status: ('A' for Active; 'I' for Inactive)
REMARK    1  A    between atoms: C2_2  and  C3_4 
REMARK    2  A    between atoms: C4_5  and  C5_6 
REMARK    3  A    between atoms: C5_6  and  N1_7 
REMARK    4  A    between atoms: N1_7  and  C6_8 
ROOT
HETATM    1  C6  UNL     1      25.928   4.389  49.579  1.00  0.00     0.154 A 
HETATM    2  N2  UNL     1      24.829   4.835  48.983  1.00  0.00    -0.222 NA
HETATM    3  C7  UNL     1      23.562   4.609  49.370  1.00  0.00     0.236 A 
HETATM    4  N3  UNL     1      23.235   3.849  50.484  1.00  0.00    -0.239 NA
HETATM    5  C8  UNL     1      24.391   3.408  51.070  1.00  0.00     0.098 A 
HETATM    6  C9  UNL     1      25.786   3.632  50.678  1.00  0.00     0.104 A 
HETATM    7  N4  UNL     1      26.846   2.969  51.462  1.00  0.00    -0.384 N 
HETATM    8  C10 UNL     1      26.591   1.689  52.146  1.00  0.00     0.129 C 
HETATM    9  C11 UNL     1      25.510   1.517  53.095  1.00  0.00     0.030 C 
HETATM   10  C12 UNL     1      24.659   2.677  53.462  1.00  0.00    -0.007 C 
HETATM   11  C13 UNL     1      24.024   2.569  52.263  1.00  0.00    -0.009 C 
HETATM   12  C14 UNL     1      23.088   1.476  51.797  1.00  0.00     0.009 C 
HETATM   13  C15 UNL     1      23.109   0.648  52.881  1.00  0.00    -0.025 C 
HETATM   14  C16 UNL     1      24.617   0.301  53.027  1.00  0.00     0.037 C 
HETATM   15  H9  UNL     1      27.631   3.635  51.328  1.00  0.00     0.159 HD
ENDROOT
BRANCH   1  16
HETATM   16  N1  UNL     1      27.269   4.544  49.279  1.00  0.00    -0.362 N 
HETATM   17  H7  UNL     1      28.155   4.072  49.448  1.00  0.00     0.162 HD
BRANCH  16  18
HETATM   18  C5  UNL     1      27.455   5.727  48.486  1.00  0.00     0.215 C 
BRANCH  18  19
HETATM   19  C4  UNL     1      28.831   5.974  48.069  1.00  0.00    -0.086 C 
HETATM   20  C3  UNL     1      29.964   6.189  47.744  1.00  0.00    -0.089 C 
BRANCH  20  21
HETATM   21  C2  UNL     1      31.369   6.450  47.368  1.00  0.00     0.133 C 
HETATM   22  C1  UNL     1      31.460   7.358  46.157  1.00  0.00     0.035 C 
HETATM   23 BR1  UNL     1      32.257   4.760  47.053  1.00  0.00    -0.078 Br
ENDBRANCH  20  21
ENDBRANCH  18  19
ENDBRANCH  16  18
ENDBRANCH   1  16
TORSDOF 4
ENDMDL
MODEL 6
REMARK VINA RESULT:      -6.8      2.629      5.294
REMARK  4 active torsions:
REMARK  status: ('A' for Active; 'I' for Inactive)
REMARK    1  A    between atoms: C2_2  and  C3_4 
REMARK    2  A    between atoms: C4_5  and  C5_6 
REMARK    3  A    between atoms: C5_6  and  N1_7 
REMARK    4  A    between atoms: N1_7  and  C6_8 
ROOT
HETATM    1  C6  UNL     1      26.113   3.240  50.792  1.00  0.00     0.154 A 
HETATM    2  N2  UNL     1      26.941   2.359  51.339  1.00  0.00    -0.222 NA
HETATM    3  C7  UNL     1      26.599   1.204  51.937  1.00  0.00     0.236 A 
HETATM    4  N3  UNL     1      25.284   0.776  52.059  1.00  0.00    -0.239 NA
HETATM    5  C8  UNL     1      24.463   1.708  51.483  1.00  0.00     0.098 A 
HETATM    6  C9  UNL     1      24.798   2.976  50.827  1.00  0.00     0.104 A 
HETATM    7  N4  UNL     1      23.692   3.830  50.353  1.00  0.00    -0.384 N 
HETATM    8  C10 UNL     1      22.379   3.804  51.020  1.00  0.00     0.129 C 
HETATM    9  C11 UNL     1      21.620   2.583  51.198  1.00  0.00     0.030 C 
HETATM   10  C12 UNL     1      22.130   1.309  50.631  1.00  0.00    -0.007 C 
HETATM   11  C13 UNL     1      23.041   1.245  51.640  1.00  0.00    -0.009 C 
HETATM   12  C14 UNL     1      22.789   0.994  53.110  1.00  0.00     0.009 C 
HETATM   13  C15 UNL     1      21.429   0.900  53.120  1.00  0.00    -0.025 C 
HETATM   14  C16 UNL     1      20.980   2.265  52.528  1.00  0.00     0.037 C 
HETATM   15  H9  UNL     1      24.152   4.321  49.562  1.00  0.00     0.159 HD
ENDROOT
BRANCH   1  16
HETATM   16  N1  UNL     1      26.338   4.451  50.163  1.00  0.00    -0.362 N 
HETATM   17  H7  UNL     1      26.114   5.435  50.287  1.00  0.00     0.162 HD
BRANCH  16  18
HETATM   18  C5  UNL     1      27.133   4.245  48.984  1.00  0.00     0.215 C 
BRANCH  18  19
HETATM   19  C4  UNL     1      27.869   5.419  48.529  1.00  0.00    -0.086 C 
HETATM   20  C3  UNL     1      28.490   6.379  48.169  1.00  0.00    -0.089 C 
BRANCH  20  21
HETATM   21  C2  UNL     1      29.278   7.547  47.722  1.00  0.00     0.133 C 
HETATM   22  C1  UNL     1      29.334   8.619  48.794  1.00  0.00     0.035 C 
HETATM   23 BR1  UNL     1      28.515   8.226  46.080  1.00  0.00    -0.078 Br
ENDBRANCH  20  21
ENDBRANCH  18  19
ENDBRANCH  16  18
ENDBRANCH   1  16
TORSDOF 4
ENDMDL
MODEL 7
REMARK VINA RESULT:      -6.8      2.523      3.900
REMARK  4 active torsions:
REMARK  status: ('A' for Active; 'I' for Inactive)
REMARK    1  A    between atoms: C2_2  and  C3_4 
REMARK    2  A    between atoms: C4_5  and  C5_6 
REMARK    3  A    between atoms: C5_6  and  N1_7 
REMARK    4  A    between atoms: N1_7  and  C6_8 
ROOT
HETATM    1  C6  UNL     1      25.520   3.399  49.738  1.00  0.00     0.154 A 
HETATM    2  N2  UNL     1      24.286   3.240  49.274  1.00  0.00    -0.222 NA
HETATM    3  C7  UNL     1      23.268   2.627  49.903  1.00  0.00     0.236 A 
HETATM    4  N3  UNL     1      23.388   2.063  51.165  1.00  0.00    -0.239 NA
HETATM    5  C8  UNL     1      24.670   2.247  51.609  1.00  0.00     0.098 A 
HETATM    6  C9  UNL     1      25.804   2.905  50.953  1.00  0.00     0.104 A 
HETATM    7  N4  UNL     1      27.109   2.896  51.641  1.00  0.00    -0.384 N 
HETATM    8  C10 UNL     1      27.472   1.801  52.558  1.00  0.00     0.129 C 
HETATM    9  C11 UNL     1      26.650   1.432  53.692  1.00  0.00     0.030 C 
HETATM   10  C12 UNL     1      25.430   2.218  54.006  1.00  0.00    -0.007 C 
HETATM   11  C13 UNL     1      24.794   1.613  52.966  1.00  0.00    -0.009 C 
HETATM   12  C14 UNL     1      24.359   0.168  52.851  1.00  0.00     0.009 C 
HETATM   13  C15 UNL     1      24.819  -0.328  54.035  1.00  0.00    -0.025 C 
HETATM   14  C16 UNL     1      26.342  -0.019  53.976  1.00  0.00     0.037 C 
HETATM   15  H9  UNL     1      27.530   3.769  51.270  1.00  0.00     0.159 HD
ENDROOT
BRANCH   1  16
HETATM   16  N1  UNL     1      26.642   3.995  49.192  1.00  0.00    -0.362 N 
HETATM   17  H7  UNL     1      27.580   3.739  48.893  1.00  0.00     0.162 HD
BRANCH  16  18
HETATM   18  C5  UNL     1      26.395   5.395  48.986  1.00  0.00     0.215 C 
BRANCH  18  19
HETATM   19  C4  UNL     1      27.505   6.130  48.390  1.00  0.00    -0.086 C 
HETATM   20  C3  UNL     1      28.409   6.753  47.907  1.00  0.00    -0.089 C 
BRANCH  20  21
HETATM   21  C2  UNL     1      29.525   7.534  47.335  1.00  0.00     0.133 C 
HETATM   22  C1  UNL     1      29.190   8.040  45.945  1.00  0.00     0.035 C 
HETATM   23 BR1  UNL     1      31.117   6.438  47.325  1.00  0.00    -0.078 Br
ENDBRANCH  20  21
ENDBRANCH  18  19
ENDBRANCH  16  18
ENDBRANCH   1  16
TORSDOF 4
ENDMDL
MODEL 8
REMARK VINA RESULT:      -6.7      2.881      4.015
REMARK  4 active torsions:
REMARK  status: ('A' for Active; 'I' for Inactive)
REMARK    1  A    between atoms: C2_2  and  C3_4 
REMARK    2  A    between atoms: C4_5  and  C5_6 
REMARK    3  A    between atoms: C5_6  and  N1_7 
REMARK    4  A    between atoms: N1_7  and  C6_8 
ROOT
HETATM    1  C6  UNL     1      23.414   1.786  52.520  1.00  0.00     0.154 A 
HETATM    2  N2  UNL     1      23.577   2.858  51.753  1.00  0.00    -0.222 NA
HETATM    3  C7  UNL     1      24.743   3.329  51.275  1.00  0.00     0.236 A 
HETATM    4  N3  UNL     1      25.967   2.729  51.537  1.00  0.00    -0.239 NA
HETATM    5  C8  UNL     1      25.757   1.631  52.329  1.00  0.00     0.098 A 
HETATM    6  C9  UNL     1      24.507   1.088  52.869  1.00  0.00     0.104 A 
HETATM    7  N4  UNL     1      24.583  -0.082  53.763  1.00  0.00    -0.384 N 
HETATM    8  C10 UNL     1      25.774  -0.320  54.597  1.00  0.00     0.129 C 
HETATM    9  C11 UNL     1      27.108  -0.412  54.040  1.00  0.00     0.030 C 
HETATM   10  C12 UNL     1      27.299  -0.342  52.569  1.00  0.00    -0.007 C 
HETATM   11  C13 UNL     1      27.090   1.002  52.623  1.00  0.00    -0.009 C 
HETATM   12  C14 UNL     1      27.986   2.061  53.226  1.00  0.00     0.009 C 
HETATM   13  C15 UNL     1      28.997   1.288  53.715  1.00  0.00    -0.025 C 
HETATM   14  C16 UNL     1      28.261   0.320  54.683  1.00  0.00     0.037 C 
HETATM   15  H9  UNL     1      23.660  -0.523  53.584  1.00  0.00     0.159 HD
ENDROOT
BRANCH   1  16
HETATM   16  N1  UNL     1      22.286   1.211  53.075  1.00  0.00    -0.362 N 
HETATM   17  H7  UNL     1      21.722   1.282  53.919  1.00  0.00     0.162 HD
BRANCH  16  18
HETATM   18  C5  UNL     1      21.755   0.222  52.178  1.00  0.00     0.215 C 
BRANCH  18  19
HETATM   19  C4  UNL     1      21.523   0.692  50.817  1.00  0.00    -0.086 C 
HETATM   20  C3  UNL     1      21.347   1.094  49.701  1.00  0.00    -0.089 C 
BRANCH  20  21
HETATM   21  C2  UNL     1      21.157   1.591  48.322  1.00  0.00     0.133 C 
HETATM   22  C1  UNL     1      22.457   2.107  47.736  1.00  0.00     0.035 C 
HETATM   23 BR1  UNL     1      19.792   2.961  48.333  1.00  0.00    -0.078 Br
ENDBRANCH  20  21
ENDBRANCH  18  19
ENDBRANCH  16  18
ENDBRANCH   1  16
TORSDOF 4
ENDMDL
MODEL 9
REMARK VINA RESULT:      -6.7      2.387      3.760
REMARK  4 active torsions:
REMARK  status: ('A' for Active; 'I' for Inactive)
REMARK    1  A    between atoms: C2_2  and  C3_4 
REMARK    2  A    between atoms: C4_5  and  C5_6 
REMARK    3  A    between atoms: C5_6  and  N1_7 
REMARK    4  A    between atoms: N1_7  and  C6_8 
ROOT
HETATM    1  C6  UNL     1      24.032   2.718  50.987  1.00  0.00     0.154 A 
HETATM    2  N2  UNL     1      24.739   3.632  50.332  1.00  0.00    -0.222 NA
HETATM    3  C7  UNL     1      26.080   3.707  50.263  1.00  0.00     0.236 A 
HETATM    4  N3  UNL     1      26.922   2.802  50.894  1.00  0.00    -0.239 NA
HETATM    5  C8  UNL     1      26.158   1.878  51.556  1.00  0.00     0.098 A 
HETATM    6  C9  UNL     1      24.700   1.765  51.655  1.00  0.00     0.104 A 
HETATM    7  N4  UNL     1      24.140   0.698  52.506  1.00  0.00    -0.384 N 
HETATM    8  C10 UNL     1      24.883   0.194  53.674  1.00  0.00     0.129 C 
HETATM    9  C11 UNL     1      26.232  -0.324  53.573  1.00  0.00     0.030 C 
HETATM   10  C12 UNL     1      26.884  -0.430  52.243  1.00  0.00    -0.007 C 
HETATM   11  C13 UNL     1      27.081   0.917  52.252  1.00  0.00    -0.009 C 
HETATM   12  C14 UNL     1      28.017   1.717  53.130  1.00  0.00     0.009 C 
HETATM   13  C15 UNL     1      28.545   0.727  53.904  1.00  0.00    -0.025 C 
HETATM   14  C16 UNL     1      27.290   0.093  54.567  1.00  0.00     0.037 C 
HETATM   15  H9  UNL     1      23.231   0.529  52.032  1.00  0.00     0.159 HD
ENDROOT
BRANCH   1  16
HETATM   16  N1  UNL     1      22.670   2.540  51.138  1.00  0.00    -0.362 N 
HETATM   17  H7  UNL     1      21.924   1.959  50.764  1.00  0.00     0.162 HD
BRANCH  16  18
HETATM   18  C5  UNL     1      22.169   3.452  52.129  1.00  0.00     0.215 C 
BRANCH  18  19
HETATM   19  C4  UNL     1      21.988   4.822  51.663  1.00  0.00    -0.086 C 
HETATM   20  C3  UNL     1      21.827   5.942  51.265  1.00  0.00    -0.089 C 
BRANCH  20  21
HETATM   21  C2  UNL     1      21.601   7.316  50.772  1.00  0.00     0.133 C 
HETATM   22  C1  UNL     1      20.514   7.354  49.715  1.00  0.00     0.035 C 
HETATM   23 BR1  UNL     1      23.271   8.021  50.097  1.00  0.00    -0.078 Br
ENDBRANCH  20  21
ENDBRANCH  18  19
ENDBRANCH  16  18
ENDBRANCH   1  16
TORSDOF 4
ENDMDL
