MODEL 1
REMARK VINA RESULT:      -7.7      0.000      0.000
REMARK  8 active torsions:
REMARK  status: ('A' for Active; 'I' for Inactive)
REMARK    1  A    between atoms: C2_2  and  N1_3 
REMARK    2  A    between atoms: N1_3  and  C3_4 
REMARK    3  A    between atoms: C3_4  and  C4_5 
REMARK    4  A    between atoms: C4_5  and  C5_6 
REMARK    5  A    between atoms: C15_18  and  C16_19 
REMARK    6  A    between atoms: C16_19  and  C17_20 
REMARK    7  A    between atoms: C17_20  and  C18_21 
REMARK    8  A    between atoms: C18_21  and  N3_23 
ROOT
HETATM    1  C5  UNL     1      24.582   0.364  53.087  1.00  0.00     0.003 A 
HETATM    2  C6  UNL     1      24.263   1.251  52.050  1.00  0.00     0.062 A 
HETATM    3  N2  UNL     1      22.949   1.270  51.921  1.00  0.00    -0.322 N 
HETATM    4  C7  UNL     1      22.311   0.475  52.774  1.00  0.00     0.048 A 
HETATM    5  C8  UNL     1      20.968   0.224  52.950  1.00  0.00     0.030 A 
HETATM    6  C9  UNL     1      20.600  -0.668  53.935  1.00  0.00     0.002 A 
HETATM    7  C10 UNL     1      21.613  -1.240  54.672  1.00  0.00     0.001 A 
HETATM    8  C11 UNL     1      22.944  -0.958  54.459  1.00  0.00     0.014 A 
HETATM    9  C12 UNL     1      23.344  -0.073  53.483  1.00  0.00     0.003 A 
HETATM   10  C13 UNL     1      22.378   2.170  50.889  1.00  0.00     0.299 C 
HETATM   11  O1  UNL     1      23.247   2.189  49.874  1.00  0.00    -0.371 OA
HETATM   12  C14 UNL     1      23.153   3.040  48.845  1.00  0.00     0.174 C 
HETATM   13  C15 UNL     1      23.261   4.498  49.232  1.00  0.00     0.011 C 
HETATM   14  C20 UNL     1      24.140   4.819  50.371  1.00  0.00     0.026 C 
HETATM   15  C21 UNL     1      25.529   4.278  50.358  1.00  0.00     0.119 C 
HETATM   16  N4  UNL     1      25.552   2.807  50.379  1.00  0.00    -0.397 N 
HETATM   17  C22 UNL     1      25.188   1.902  51.383  1.00  0.00     0.113 C 
HETATM   18  H31 UNL     1      25.909   2.455  49.432  1.00  0.00     0.158 HD
ENDROOT
BRANCH  13  19
HETATM   19  C16 UNL     1      23.362   5.451  48.089  1.00  0.00     0.013 C 
BRANCH  19  20
HETATM   20  C17 UNL     1      23.653   6.834  48.642  1.00  0.00     0.070 C 
BRANCH  20  21
HETATM   21  C18 UNL     1      24.827   7.469  47.991  1.00  0.00     0.073 C 
HETATM   22  S1  UNL     1      24.734   8.190  46.529  1.00  0.00    -0.066 SA
BRANCH  21  23
HETATM   23  N3  UNL     1      26.120   7.487  48.614  1.00  0.00    -0.389 N 
HETATM   24  C19 UNL     1      26.370   7.994  49.951  1.00  0.00     0.147 C 
HETATM   25  H23 UNL     1      26.956   7.114  48.087  1.00  0.00     0.159 HD
ENDBRANCH  21  23
ENDBRANCH  20  21
ENDBRANCH  19  20
ENDBRANCH  13  19
BRANCH   1  26
HETATM   26  C4  UNL     1      25.743   0.006  53.590  1.00  0.00     0.017 C 
BRANCH  26  27
HETATM   27  C3  UNL     1      26.464   0.378  54.798  1.00  0.00     0.298 C 
BRANCH  27  28
HETATM   28  N1  UNL     1      27.714  -0.341  54.964  1.00  0.00     0.086 N 
HETATM   29  H6  UNL     1      27.652  -1.316  54.656  1.00  0.00     0.316 HD
BRANCH  28  30
HETATM   30  C2  UNL     1      28.873   0.364  54.518  1.00  0.00     0.265 C 
HETATM   31  C1  UNL     1      29.668  -0.609  53.644  1.00  0.00     0.037 C 
ENDBRANCH  28  30
ENDBRANCH  27  28
ENDBRANCH  26  27
ENDBRANCH   1  26
TORSDOF 8
ENDMDL
MODEL 2
REMARK VINA RESULT:      -7.7      1.768      1.991
REMARK  8 active torsions:
REMARK  status: ('A' for Active; 'I' for Inactive)
REMARK    1  A    between atoms: C2_2  and  N1_3 
REMARK    2  A    between atoms: N1_3  and  C3_4 
REMARK    3  A    between atoms: C3_4  and  C4_5 
REMARK    4  A    between atoms: C4_5  and  C5_6 
REMARK    5  A    between atoms: C15_18  and  C16_19 
REMARK    6  A    between atoms: C16_19  and  C17_20 
REMARK    7  A    between atoms: C17_20  and  C18_21 
REMARK    8  A    between atoms: C18_21  and  N3_23 
ROOT
HETATM    1  C5  UNL     1      24.595   0.349  53.095  1.00  0.00     0.003 A 
HETATM    2  C6  UNL     1      24.279   1.243  52.063  1.00  0.00     0.062 A 
HETATM    3  N2  UNL     1      22.966   1.265  51.931  1.00  0.00    -0.322 N 
HETATM    4  C7  UNL     1      22.325   0.464  52.777  1.00  0.00     0.048 A 
HETATM    5  C8  UNL     1      20.981   0.213  52.947  1.00  0.00     0.030 A 
HETATM    6  C9  UNL     1      20.610  -0.685  53.925  1.00  0.00     0.002 A 
HETATM    7  C10 UNL     1      21.620  -1.264  54.660  1.00  0.00     0.001 A 
HETATM    8  C11 UNL     1      22.951  -0.982  54.453  1.00  0.00     0.014 A 
HETATM    9  C12 UNL     1      23.355  -0.090  53.485  1.00  0.00     0.003 A 
HETATM   10  C13 UNL     1      22.399   2.173  50.904  1.00  0.00     0.299 C 
HETATM   11  O1  UNL     1      23.271   2.198  49.892  1.00  0.00    -0.371 OA
HETATM   12  C14 UNL     1      23.181   3.057  48.869  1.00  0.00     0.174 C 
HETATM   13  C15 UNL     1      23.289   4.512  49.267  1.00  0.00     0.011 C 
HETATM   14  C20 UNL     1      24.165   4.824  50.411  1.00  0.00     0.026 C 
HETATM   15  C21 UNL     1      25.553   4.281  50.397  1.00  0.00     0.119 C 
HETATM   16  N4  UNL     1      25.575   2.810  50.408  1.00  0.00    -0.397 N 
HETATM   17  C22 UNL     1      25.207   1.898  51.405  1.00  0.00     0.113 C 
HETATM   18  H31 UNL     1      25.935   2.465  49.459  1.00  0.00     0.158 HD
ENDROOT
BRANCH  13  19
HETATM   19  C16 UNL     1      23.394   5.473  48.131  1.00  0.00     0.013 C 
BRANCH  19  20
HETATM   20  C17 UNL     1      22.010   5.674  47.542  1.00  0.00     0.070 C 
BRANCH  20  21
HETATM   21  C18 UNL     1      21.026   6.141  48.552  1.00  0.00     0.073 C 
HETATM   22  S1  UNL     1      19.718   5.260  48.973  1.00  0.00    -0.066 SA
BRANCH  21  23
HETATM   23  N3  UNL     1      21.169   7.403  49.220  1.00  0.00    -0.389 N 
HETATM   24  C19 UNL     1      21.484   7.543  50.631  1.00  0.00     0.147 C 
HETATM   25  H23 UNL     1      21.042   8.298  48.673  1.00  0.00     0.159 HD
ENDBRANCH  21  23
ENDBRANCH  20  21
ENDBRANCH  19  20
ENDBRANCH  13  19
BRANCH   1  26
HETATM   26  C4  UNL     1      25.754  -0.014  53.599  1.00  0.00     0.017 C 
BRANCH  26  27
HETATM   27  C3  UNL     1      26.470   0.345  54.813  1.00  0.00     0.298 C 
BRANCH  27  28
HETATM   28  N1  UNL     1      27.750  -0.328  54.945  1.00  0.00     0.086 N 
HETATM   29  H6  UNL     1      27.700  -1.321  54.703  1.00  0.00     0.316 HD
BRANCH  28  30
HETATM   30  C2  UNL     1      28.857   0.379  54.385  1.00  0.00     0.265 C 
HETATM   31  C1  UNL     1      29.743  -0.666  53.704  1.00  0.00     0.037 C 
ENDBRANCH  28  30
ENDBRANCH  27  28
ENDBRANCH  26  27
ENDBRANCH   1  26
TORSDOF 8
ENDMDL
MODEL 3
REMARK VINA RESULT:      -7.6      1.514      2.079
REMARK  8 active torsions:
REMARK  status: ('A' for Active; 'I' for Inactive)
REMARK    1  A    between atoms: C2_2  and  N1_3 
REMARK    2  A    between atoms: N1_3  and  C3_4 
REMARK    3  A    between atoms: C3_4  and  C4_5 
REMARK    4  A    between atoms: C4_5  and  C5_6 
REMARK    5  A    between atoms: C15_18  and  C16_19 
REMARK    6  A    between atoms: C16_19  and  C17_20 
REMARK    7  A    between atoms: C17_20  and  C18_21 
REMARK    8  A    between atoms: C18_21  and  N3_23 
ROOT
HETATM    1  C5  UNL     1      24.671   0.350  53.107  1.00  0.00     0.003 A 
HETATM    2  C6  UNL     1      24.350   1.250  52.081  1.00  0.00     0.062 A 
HETATM    3  N2  UNL     1      23.036   1.284  51.966  1.00  0.00    -0.322 N 
HETATM    4  C7  UNL     1      22.398   0.488  52.818  1.00  0.00     0.048 A 
HETATM    5  C8  UNL     1      21.054   0.250  53.005  1.00  0.00     0.030 A 
HETATM    6  C9  UNL     1      20.686  -0.646  53.986  1.00  0.00     0.002 A 
HETATM    7  C10 UNL     1      21.700  -1.236  54.708  1.00  0.00     0.001 A 
HETATM    8  C11 UNL     1      23.031  -0.967  54.484  1.00  0.00     0.014 A 
HETATM    9  C12 UNL     1      23.431  -0.077  53.512  1.00  0.00     0.003 A 
HETATM   10  C13 UNL     1      22.464   2.200  50.948  1.00  0.00     0.299 C 
HETATM   11  O1  UNL     1      23.323   2.218  49.924  1.00  0.00    -0.371 OA
HETATM   12  C14 UNL     1      23.229   3.080  48.904  1.00  0.00     0.174 C 
HETATM   13  C15 UNL     1      23.356   4.533  49.303  1.00  0.00     0.011 C 
HETATM   14  C20 UNL     1      24.251   4.834  50.436  1.00  0.00     0.026 C 
HETATM   15  C21 UNL     1      25.633   4.277  50.404  1.00  0.00     0.119 C 
HETATM   16  N4  UNL     1      25.640   2.806  50.411  1.00  0.00    -0.397 N 
HETATM   17  C22 UNL     1      25.276   1.897  51.411  1.00  0.00     0.113 C 
HETATM   18  H31 UNL     1      25.984   2.459  49.457  1.00  0.00     0.158 HD
ENDROOT
BRANCH  13  19
HETATM   19  C16 UNL     1      23.457   5.495  48.168  1.00  0.00     0.013 C 
BRANCH  19  20
HETATM   20  C17 UNL     1      22.054   5.821  47.689  1.00  0.00     0.070 C 
BRANCH  20  21
HETATM   21  C18 UNL     1      22.014   6.178  46.248  1.00  0.00     0.073 C 
HETATM   22  S1  UNL     1      21.819   7.714  45.733  1.00  0.00    -0.066 SA
BRANCH  21  23
HETATM   23  N3  UNL     1      22.147   5.186  45.219  1.00  0.00    -0.389 N 
HETATM   24  C19 UNL     1      21.700   3.811  45.355  1.00  0.00     0.147 C 
HETATM   25  H23 UNL     1      22.594   5.449  44.299  1.00  0.00     0.159 HD
ENDBRANCH  21  23
ENDBRANCH  20  21
ENDBRANCH  19  20
ENDBRANCH  13  19
BRANCH   1  26
HETATM   26  C4  UNL     1      25.832  -0.025  53.596  1.00  0.00     0.017 C 
BRANCH  26  27
HETATM   27  C3  UNL     1      26.505   0.213  54.863  1.00  0.00     0.298 C 
BRANCH  27  28
HETATM   28  N1  UNL     1      27.890  -0.224  54.869  1.00  0.00     0.086 N 
HETATM   29  H6  UNL     1      28.009  -1.148  55.294  1.00  0.00     0.316 HD
BRANCH  28  30
HETATM   30  C2  UNL     1      28.584  -0.028  53.637  1.00  0.00     0.265 C 
HETATM   31  C1  UNL     1      29.712  -1.061  53.602  1.00  0.00     0.037 C 
ENDBRANCH  28  30
ENDBRANCH  27  28
ENDBRANCH  26  27
ENDBRANCH   1  26
TORSDOF 8
ENDMDL
MODEL 4
REMARK VINA RESULT:      -7.6      3.484      7.251
REMARK  8 active torsions:
REMARK  status: ('A' for Active; 'I' for Inactive)
REMARK    1  A    between atoms: C2_2  and  N1_3 
REMARK    2  A    between atoms: N1_3  and  C3_4 
REMARK    3  A    between atoms: C3_4  and  C4_5 
REMARK    4  A    between atoms: C4_5  and  C5_6 
REMARK    5  A    between atoms: C15_18  and  C16_19 
REMARK    6  A    between atoms: C16_19  and  C17_20 
REMARK    7  A    between atoms: C17_20  and  C18_21 
REMARK    8  A    between atoms: C18_21  and  N3_23 
ROOT
HETATM    1  C5  UNL     1      25.994   2.188  51.723  1.00  0.00     0.003 A 
HETATM    2  C6  UNL     1      24.678   1.820  52.031  1.00  0.00     0.062 A 
HETATM    3  N2  UNL     1      23.867   2.534  51.273  1.00  0.00    -0.322 N 
HETATM    4  C7  UNL     1      24.494   3.376  50.456  1.00  0.00     0.048 A 
HETATM    5  C8  UNL     1      24.008   4.273  49.530  1.00  0.00     0.030 A 
HETATM    6  C9  UNL     1      24.918   5.024  48.817  1.00  0.00     0.002 A 
HETATM    7  C10 UNL     1      26.252   4.816  49.090  1.00  0.00     0.001 A 
HETATM    8  C11 UNL     1      26.691   3.907  50.026  1.00  0.00     0.014 A 
HETATM    9  C12 UNL     1      25.807   3.142  50.755  1.00  0.00     0.003 A 
HETATM   10  C13 UNL     1      22.411   2.289  51.410  1.00  0.00     0.299 C 
HETATM   11  O1  UNL     1      22.193   1.992  52.695  1.00  0.00    -0.371 OA
HETATM   12  C14 UNL     1      21.022   1.530  53.152  1.00  0.00     0.174 C 
HETATM   13  C15 UNL     1      20.605   0.201  52.562  1.00  0.00     0.011 C 
HETATM   14  C20 UNL     1      21.686  -0.744  52.227  1.00  0.00     0.026 C 
HETATM   15  C21 UNL     1      22.705  -1.043  53.272  1.00  0.00     0.119 C 
HETATM   16  N4  UNL     1      23.473   0.152  53.656  1.00  0.00    -0.397 N 
HETATM   17  C22 UNL     1      24.406   0.909  52.936  1.00  0.00     0.113 C 
HETATM   18  H31 UNL     1      23.210   0.422  54.659  1.00  0.00     0.158 HD
ENDROOT
BRANCH  13  19
HETATM   19  C16 UNL     1      19.413  -0.428  53.200  1.00  0.00     0.013 C 
BRANCH  19  20
HETATM   20  C17 UNL     1      18.312  -0.534  52.161  1.00  0.00     0.070 C 
BRANCH  20  21
HETATM   21  C18 UNL     1      17.082  -1.167  52.700  1.00  0.00     0.073 C 
HETATM   22  S1  UNL     1      15.590  -0.774  52.168  1.00  0.00    -0.066 SA
BRANCH  21  23
HETATM   23  N3  UNL     1      17.134  -2.168  53.727  1.00  0.00    -0.389 N 
HETATM   24  C19 UNL     1      17.210  -3.595  53.466  1.00  0.00     0.147 C 
HETATM   25  H23 UNL     1      17.116  -1.874  54.741  1.00  0.00     0.159 HD
ENDBRANCH  21  23
ENDBRANCH  20  21
ENDBRANCH  19  20
ENDBRANCH  13  19
BRANCH   1  26
HETATM   26  C4  UNL     1      27.144   1.767  52.202  1.00  0.00     0.017 C 
BRANCH  26  27
HETATM   27  C3  UNL     1      28.059   2.291  53.204  1.00  0.00     0.298 C 
BRANCH  27  28
HETATM   28  N1  UNL     1      28.388   1.328  54.241  1.00  0.00     0.086 N 
HETATM   29  H6  UNL     1      28.048   1.612  55.164  1.00  0.00     0.316 HD
BRANCH  28  30
HETATM   30  C2  UNL     1      28.137  -0.033  53.893  1.00  0.00     0.265 C 
HETATM   31  C1  UNL     1      29.504  -0.711  53.767  1.00  0.00     0.037 C 
ENDBRANCH  28  30
ENDBRANCH  27  28
ENDBRANCH  26  27
ENDBRANCH   1  26
TORSDOF 8
ENDMDL
MODEL 5
REMARK VINA RESULT:      -7.2      2.773      5.290
REMARK  8 active torsions:
REMARK  status: ('A' for Active; 'I' for Inactive)
REMARK    1  A    between atoms: C2_2  and  N1_3 
REMARK    2  A    between atoms: N1_3  and  C3_4 
REMARK    3  A    between atoms: C3_4  and  C4_5 
REMARK    4  A    between atoms: C4_5  and  C5_6 
REMARK    5  A    between atoms: C15_18  and  C16_19 
REMARK    6  A    between atoms: C16_19  and  C17_20 
REMARK    7  A    between atoms: C17_20  and  C18_21 
REMARK    8  A    between atoms: C18_21  and  N3_23 
ROOT
HETATM    1  C5  UNL     1      23.417   0.109  52.901  1.00  0.00     0.003 A 
HETATM    2  C6  UNL     1      23.213   1.042  51.876  1.00  0.00     0.062 A 
HETATM    3  N2  UNL     1      24.370   1.621  51.616  1.00  0.00    -0.322 N 
HETATM    4  C7  UNL     1      25.375   1.181  52.367  1.00  0.00     0.048 A 
HETATM    5  C8  UNL     1      26.707   1.531  52.397  1.00  0.00     0.030 A 
HETATM    6  C9  UNL     1      27.525   0.888  53.302  1.00  0.00     0.002 A 
HETATM    7  C10 UNL     1      26.940  -0.061  54.111  1.00  0.00     0.001 A 
HETATM    8  C11 UNL     1      25.602  -0.377  54.045  1.00  0.00     0.014 A 
HETATM    9  C12 UNL     1      24.759   0.247  53.153  1.00  0.00     0.003 A 
HETATM   10  C13 UNL     1      24.398   2.636  50.534  1.00  0.00     0.299 C 
HETATM   11  O1  UNL     1      23.218   3.264  50.569  1.00  0.00    -0.371 OA
HETATM   12  C14 UNL     1      22.814   4.116  49.619  1.00  0.00     0.174 C 
HETATM   13  C15 UNL     1      22.675   3.496  48.246  1.00  0.00     0.011 C 
HETATM   14  C20 UNL     1      22.250   2.085  48.195  1.00  0.00     0.026 C 
HETATM   15  C21 UNL     1      21.036   1.691  48.966  1.00  0.00     0.119 C 
HETATM   16  N4  UNL     1      21.209   1.890  50.413  1.00  0.00    -0.397 N 
HETATM   17  C22 UNL     1      22.032   1.231  51.334  1.00  0.00     0.113 C 
HETATM   18  H31 UNL     1      20.572   2.692  50.728  1.00  0.00     0.158 HD
ENDROOT
BRANCH  13  19
HETATM   19  C16 UNL     1      22.036   4.368  47.219  1.00  0.00     0.013 C 
BRANCH  19  20
HETATM   20  C17 UNL     1      21.863   3.563  45.944  1.00  0.00     0.070 C 
BRANCH  20  21
HETATM   21  C18 UNL     1      21.379   4.391  44.811  1.00  0.00     0.073 C 
HETATM   22  S1  UNL     1      21.601   6.007  44.751  1.00  0.00    -0.066 SA
BRANCH  21  23
HETATM   23  N3  UNL     1      20.683   3.815  43.696  1.00  0.00    -0.389 N 
HETATM   24  C19 UNL     1      19.272   3.474  43.708  1.00  0.00     0.147 C 
HETATM   25  H23 UNL     1      21.209   3.616  42.802  1.00  0.00     0.159 HD
ENDBRANCH  21  23
ENDBRANCH  20  21
ENDBRANCH  19  20
ENDBRANCH  13  19
BRANCH   1  26
HETATM   26  C4  UNL     1      22.583  -0.710  53.503  1.00  0.00     0.017 C 
BRANCH  26  27
HETATM   27  C3  UNL     1      21.681  -0.562  54.634  1.00  0.00     0.298 C 
BRANCH  27  28
HETATM   28  N1  UNL     1      20.371  -1.147  54.406  1.00  0.00     0.086 N 
HETATM   29  H6  UNL     1      19.860  -1.319  55.275  1.00  0.00     0.316 HD
BRANCH  28  30
HETATM   30  C2  UNL     1      19.613  -0.528  53.367  1.00  0.00     0.265 C 
HETATM   31  C1  UNL     1      18.295  -1.301  53.267  1.00  0.00     0.037 C 
ENDBRANCH  28  30
ENDBRANCH  27  28
ENDBRANCH  26  27
ENDBRANCH   1  26
TORSDOF 8
ENDMDL
MODEL 6
REMARK VINA RESULT:      -7.2      2.995      6.267
REMARK  8 active torsions:
REMARK  status: ('A' for Active; 'I' for Inactive)
REMARK    1  A    between atoms: C2_2  and  N1_3 
REMARK    2  A    between atoms: N1_3  and  C3_4 
REMARK    3  A    between atoms: C3_4  and  C4_5 
REMARK    4  A    between atoms: C4_5  and  C5_6 
REMARK    5  A    between atoms: C15_18  and  C16_19 
REMARK    6  A    between atoms: C16_19  and  C17_20 
REMARK    7  A    between atoms: C17_20  and  C18_21 
REMARK    8  A    between atoms: C18_21  and  N3_23 
ROOT
HETATM    1  C5  UNL     1      25.853   2.372  51.402  1.00  0.00     0.003 A 
HETATM    2  C6  UNL     1      24.500   2.099  51.648  1.00  0.00     0.062 A 
HETATM    3  N2  UNL     1      23.779   2.935  50.926  1.00  0.00    -0.322 N 
HETATM    4  C7  UNL     1      24.501   3.777  50.191  1.00  0.00     0.048 A 
HETATM    5  C8  UNL     1      24.123   4.779  49.325  1.00  0.00     0.030 A 
HETATM    6  C9  UNL     1      25.117   5.498  48.695  1.00  0.00     0.002 A 
HETATM    7  C10 UNL     1      26.418   5.154  48.985  1.00  0.00     0.001 A 
HETATM    8  C11 UNL     1      26.748   4.143  49.860  1.00  0.00     0.014 A 
HETATM    9  C12 UNL     1      25.779   3.407  50.505  1.00  0.00     0.003 A 
HETATM   10  C13 UNL     1      22.303   2.810  51.008  1.00  0.00     0.299 C 
HETATM   11  O1  UNL     1      22.019   2.439  52.260  1.00  0.00    -0.371 OA
HETATM   12  C14 UNL     1      20.800   2.049  52.651  1.00  0.00     0.174 C 
HETATM   13  C15 UNL     1      20.289   0.809  51.950  1.00  0.00     0.011 C 
HETATM   14  C20 UNL     1      21.295  -0.200  51.571  1.00  0.00     0.026 C 
HETATM   15  C21 UNL     1      22.251  -0.663  52.616  1.00  0.00     0.119 C 
HETATM   16  N4  UNL     1      23.106   0.427  53.109  1.00  0.00    -0.397 N 
HETATM   17  C22 UNL     1      24.122   1.150  52.473  1.00  0.00     0.113 C 
HETATM   18  H31 UNL     1      22.835   0.645  54.123  1.00  0.00     0.158 HD
ENDROOT
BRANCH  13  19
HETATM   19  C16 UNL     1      19.028   0.241  52.508  1.00  0.00     0.013 C 
BRANCH  19  20
HETATM   20  C17 UNL     1      18.078  -0.039  51.358  1.00  0.00     0.070 C 
BRANCH  20  21
HETATM   21  C18 UNL     1      17.746   1.185  50.585  1.00  0.00     0.073 C 
HETATM   22  S1  UNL     1      16.774   2.356  51.176  1.00  0.00    -0.066 SA
BRANCH  21  23
HETATM   23  N3  UNL     1      18.263   1.411  49.266  1.00  0.00    -0.389 N 
HETATM   24  C19 UNL     1      18.564   2.725  48.726  1.00  0.00     0.147 C 
HETATM   25  H23 UNL     1      18.443   0.587  48.630  1.00  0.00     0.159 HD
ENDBRANCH  21  23
ENDBRANCH  20  21
ENDBRANCH  19  20
ENDBRANCH  13  19
BRANCH   1  26
HETATM   26  C4  UNL     1      26.946   1.817  51.877  1.00  0.00     0.017 C 
BRANCH  26  27
HETATM   27  C3  UNL     1      27.847   2.160  52.966  1.00  0.00     0.298 C 
BRANCH  27  28
HETATM   28  N1  UNL     1      27.345   1.767  54.272  1.00  0.00     0.086 N 
HETATM   29  H6  UNL     1      26.412   2.141  54.464  1.00  0.00     0.316 HD
BRANCH  28  30
HETATM   30  C2  UNL     1      27.523   0.386  54.588  1.00  0.00     0.265 C 
HETATM   31  C1  UNL     1      26.196  -0.102  55.174  1.00  0.00     0.037 C 
ENDBRANCH  28  30
ENDBRANCH  27  28
ENDBRANCH  26  27
ENDBRANCH   1  26
TORSDOF 8
ENDMDL
MODEL 7
REMARK VINA RESULT:      -7.1      2.467      4.950
REMARK  8 active torsions:
REMARK  status: ('A' for Active; 'I' for Inactive)
REMARK    1  A    between atoms: C2_2  and  N1_3 
REMARK    2  A    between atoms: N1_3  and  C3_4 
REMARK    3  A    between atoms: C3_4  and  C4_5 
REMARK    4  A    between atoms: C4_5  and  C5_6 
REMARK    5  A    between atoms: C15_18  and  C16_19 
REMARK    6  A    between atoms: C16_19  and  C17_20 
REMARK    7  A    between atoms: C17_20  and  C18_21 
REMARK    8  A    between atoms: C18_21  and  N3_23 
ROOT
HETATM    1  C5  UNL     1      24.901   0.248  53.379  1.00  0.00     0.003 A 
HETATM    2  C6  UNL     1      24.535   1.247  52.467  1.00  0.00     0.062 A 
HETATM    3  N2  UNL     1      25.577   2.037  52.288  1.00  0.00    -0.322 N 
HETATM    4  C7  UNL     1      26.649   1.685  52.993  1.00  0.00     0.048 A 
HETATM    5  C8  UNL     1      27.904   2.245  53.076  1.00  0.00     0.030 A 
HETATM    6  C9  UNL     1      28.826   1.647  53.908  1.00  0.00     0.002 A 
HETATM    7  C10 UNL     1      28.415   0.527  54.596  1.00  0.00     0.001 A 
HETATM    8  C11 UNL     1      27.147   0.002  54.481  1.00  0.00     0.014 A 
HETATM    9  C12 UNL     1      26.204   0.577  53.658  1.00  0.00     0.003 A 
HETATM   10  C13 UNL     1      25.426   3.161  51.332  1.00  0.00     0.299 C 
HETATM   11  O1  UNL     1      24.159   3.576  51.427  1.00  0.00    -0.371 OA
HETATM   12  C14 UNL     1      23.609   4.453  50.579  1.00  0.00     0.174 C 
HETATM   13  C15 UNL     1      23.562   3.982  49.142  1.00  0.00     0.011 C 
HETATM   14  C20 UNL     1      23.376   2.536  48.924  1.00  0.00     0.026 C 
HETATM   15  C21 UNL     1      22.253   1.860  49.632  1.00  0.00     0.119 C 
HETATM   16  N4  UNL     1      22.404   1.915  51.094  1.00  0.00    -0.397 N 
HETATM   17  C22 UNL     1      23.334   1.299  51.940  1.00  0.00     0.113 C 
HETATM   18  H31 UNL     1      21.645   2.558  51.494  1.00  0.00     0.158 HD
ENDROOT
BRANCH  13  19
HETATM   19  C16 UNL     1      22.777   4.850  48.217  1.00  0.00     0.013 C 
BRANCH  19  20
HETATM   20  C17 UNL     1      21.804   5.673  49.041  1.00  0.00     0.070 C 
BRANCH  20  21
HETATM   21  C18 UNL     1      20.453   5.059  49.104  1.00  0.00     0.073 C 
HETATM   22  S1  UNL     1      19.753   4.351  47.810  1.00  0.00    -0.066 SA
BRANCH  21  23
HETATM   23  N3  UNL     1      19.680   5.052  50.313  1.00  0.00    -0.389 N 
HETATM   24  C19 UNL     1      19.307   3.846  51.030  1.00  0.00     0.147 C 
HETATM   25  H23 UNL     1      19.350   5.967  50.723  1.00  0.00     0.159 HD
ENDBRANCH  21  23
ENDBRANCH  20  21
ENDBRANCH  19  20
ENDBRANCH  13  19
BRANCH   1  26
HETATM   26  C4  UNL     1      24.220  -0.762  53.874  1.00  0.00     0.017 C 
BRANCH  26  27
HETATM   27  C3  UNL     1      22.966  -0.858  54.604  1.00  0.00     0.298 C 
BRANCH  27  28
HETATM   28  N1  UNL     1      21.944  -1.607  53.894  1.00  0.00     0.086 N 
HETATM   29  H6  UNL     1      21.928  -2.596  54.156  1.00  0.00     0.316 HD
BRANCH  28  30
HETATM   30  C2  UNL     1      20.666  -0.972  53.841  1.00  0.00     0.265 C 
HETATM   31  C1  UNL     1      20.810   0.361  54.579  1.00  0.00     0.037 C 
ENDBRANCH  28  30
ENDBRANCH  27  28
ENDBRANCH  26  27
ENDBRANCH   1  26
TORSDOF 8
ENDMDL
MODEL 8
REMARK VINA RESULT:      -6.9      1.929      4.565
REMARK  8 active torsions:
REMARK  status: ('A' for Active; 'I' for Inactive)
REMARK    1  A    between atoms: C2_2  and  N1_3 
REMARK    2  A    between atoms: N1_3  and  C3_4 
REMARK    3  A    between atoms: C3_4  and  C4_5 
REMARK    4  A    between atoms: C4_5  and  C5_6 
REMARK    5  A    between atoms: C15_18  and  C16_19 
REMARK    6  A    between atoms: C16_19  and  C17_20 
REMARK    7  A    between atoms: C17_20  and  C18_21 
REMARK    8  A    between atoms: C18_21  and  N3_23 
ROOT
HETATM    1  C5  UNL     1      23.148   0.932  52.776  1.00  0.00     0.003 A 
HETATM    2  C6  UNL     1      23.296   2.006  51.888  1.00  0.00     0.062 A 
HETATM    3  N2  UNL     1      24.556   2.039  51.496  1.00  0.00    -0.322 N 
HETATM    4  C7  UNL     1      25.313   1.084  52.028  1.00  0.00     0.048 A 
HETATM    5  C8  UNL     1      26.649   0.792  51.871  1.00  0.00     0.030 A 
HETATM    6  C9  UNL     1      27.164  -0.282  52.567  1.00  0.00     0.002 A 
HETATM    7  C10 UNL     1      26.293  -0.982  53.371  1.00  0.00     0.001 A 
HETATM    8  C11 UNL     1      24.962  -0.652  53.497  1.00  0.00     0.014 A 
HETATM    9  C12 UNL     1      24.418   0.414  52.816  1.00  0.00     0.003 A 
HETATM   10  C13 UNL     1      24.940   3.089  50.521  1.00  0.00     0.299 C 
HETATM   11  O1  UNL     1      24.199   4.164  50.805  1.00  0.00    -0.371 OA
HETATM   12  C14 UNL     1      24.141   5.244  50.016  1.00  0.00     0.174 C 
HETATM   13  C15 UNL     1      23.588   4.975  48.634  1.00  0.00     0.011 C 
HETATM   14  C20 UNL     1      22.552   3.931  48.526  1.00  0.00     0.026 C 
HETATM   15  C21 UNL     1      21.383   4.006  49.446  1.00  0.00     0.119 C 
HETATM   16  N4  UNL     1      21.777   3.878  50.857  1.00  0.00    -0.397 N 
HETATM   17  C22 UNL     1      22.289   2.785  51.567  1.00  0.00     0.113 C 
HETATM   18  H31 UNL     1      21.623   4.820  51.345  1.00  0.00     0.158 HD
ENDROOT
BRANCH  13  19
HETATM   19  C16 UNL     1      23.325   6.190  47.810  1.00  0.00     0.013 C 
BRANCH  19  20
HETATM   20  C17 UNL     1      24.373   7.235  48.148  1.00  0.00     0.070 C 
BRANCH  20  21
HETATM   21  C18 UNL     1      23.778   8.571  48.407  1.00  0.00     0.073 C 
HETATM   22  S1  UNL     1      24.219   9.901  47.569  1.00  0.00    -0.066 SA
BRANCH  21  23
HETATM   23  N3  UNL     1      22.776   8.771  49.414  1.00  0.00    -0.389 N 
HETATM   24  C19 UNL     1      21.404   9.150  49.128  1.00  0.00     0.147 C 
HETATM   25  H23 UNL     1      23.028   8.641  50.431  1.00  0.00     0.159 HD
ENDBRANCH  21  23
ENDBRANCH  20  21
ENDBRANCH  19  20
ENDBRANCH  13  19
BRANCH   1  26
HETATM   26  C4  UNL     1      22.096   0.490  53.430  1.00  0.00     0.017 C 
BRANCH  26  27
HETATM   27  C3  UNL     1      21.121  -0.555  53.160  1.00  0.00     0.298 C 
BRANCH  27  28
HETATM   28  N1  UNL     1      19.897  -0.410  53.928  1.00  0.00     0.086 N 
HETATM   29  H6  UNL     1      19.825   0.502  54.386  1.00  0.00     0.316 HD
BRANCH  28  30
HETATM   30  C2  UNL     1      18.716  -0.847  53.256  1.00  0.00     0.265 C 
HETATM   31  C1  UNL     1      18.709  -0.155  51.891  1.00  0.00     0.037 C 
ENDBRANCH  28  30
ENDBRANCH  27  28
ENDBRANCH  26  27
ENDBRANCH   1  26
TORSDOF 8
ENDMDL
MODEL 9
REMARK VINA RESULT:      -6.9      3.949      6.569
REMARK  8 active torsions:
REMARK  status: ('A' for Active; 'I' for Inactive)
REMARK    1  A    between atoms: C2_2  and  N1_3 
REMARK    2  A    between atoms: N1_3  and  C3_4 
REMARK    3  A    between atoms: C3_4  and  C4_5 
REMARK    4  A    between atoms: C4_5  and  C5_6 
REMARK    5  A    between atoms: C15_18  and  C16_19 
REMARK    6  A    between atoms: C16_19  and  C17_20 
REMARK    7  A    between atoms: C17_20  and  C18_21 
REMARK    8  A    between atoms: C18_21  and  N3_23 
ROOT
HETATM    1  C5  UNL     1      24.679   1.342  52.359  1.00  0.00     0.003 A 
HETATM    2  C6  UNL     1      23.297   1.530  52.226  1.00  0.00     0.062 A 
HETATM    3  N2  UNL     1      23.095   2.392  51.247  1.00  0.00    -0.322 N 
HETATM    4  C7  UNL     1      24.213   2.832  50.676  1.00  0.00     0.048 A 
HETATM    5  C8  UNL     1      24.415   3.720  49.644  1.00  0.00     0.030 A 
HETATM    6  C9  UNL     1      25.714   3.985  49.262  1.00  0.00     0.002 A 
HETATM    7  C10 UNL     1      26.713   3.333  49.950  1.00  0.00     0.001 A 
HETATM    8  C11 UNL     1      26.462   2.452  50.978  1.00  0.00     0.014 A 
HETATM    9  C12 UNL     1      25.177   2.167  51.382  1.00  0.00     0.003 A 
HETATM   10  C13 UNL     1      21.690   2.724  50.909  1.00  0.00     0.299 C 
HETATM   11  O1  UNL     1      21.003   2.693  52.055  1.00  0.00    -0.371 OA
HETATM   12  C14 UNL     1      19.667   2.760  52.110  1.00  0.00     0.174 C 
HETATM   13  C15 UNL     1      18.958   1.617  51.417  1.00  0.00     0.011 C 
HETATM   14  C20 UNL     1      19.629   0.305  51.447  1.00  0.00     0.026 C 
HETATM   15  C21 UNL     1      20.090  -0.216  52.765  1.00  0.00     0.119 C 
HETATM   16  N4  UNL     1      21.113   0.646  53.376  1.00  0.00    -0.397 N 
HETATM   17  C22 UNL     1      22.435   0.906  52.995  1.00  0.00     0.113 C 
HETATM   18  H31 UNL     1      20.692   1.119  54.241  1.00  0.00     0.158 HD
ENDROOT
BRANCH  13  19
HETATM   19  C16 UNL     1      17.484   1.560  51.637  1.00  0.00     0.013 C 
BRANCH  19  20
HETATM   20  C17 UNL     1      16.945   2.979  51.649  1.00  0.00     0.070 C 
BRANCH  20  21
HETATM   21  C18 UNL     1      15.471   3.028  51.480  1.00  0.00     0.073 C 
HETATM   22  S1  UNL     1      14.497   3.831  52.515  1.00  0.00    -0.066 SA
BRANCH  21  23
HETATM   23  N3  UNL     1      14.812   2.367  50.389  1.00  0.00    -0.389 N 
HETATM   24  C19 UNL     1      13.567   2.822  49.798  1.00  0.00     0.147 C 
HETATM   25  H23 UNL     1      15.240   1.495  49.976  1.00  0.00     0.159 HD
ENDBRANCH  21  23
ENDBRANCH  20  21
ENDBRANCH  19  20
ENDBRANCH  13  19
BRANCH   1  26
HETATM   26  C4  UNL     1      25.373   0.589  53.183  1.00  0.00     0.017 C 
BRANCH  26  27
HETATM   27  C3  UNL     1      26.291   0.885  54.272  1.00  0.00     0.298 C 
BRANCH  27  28
HETATM   28  N1  UNL     1      27.117  -0.248  54.651  1.00  0.00     0.086 N 
HETATM   29  H6  UNL     1      26.884  -1.097  54.129  1.00  0.00     0.316 HD
BRANCH  28  30
HETATM   30  C2  UNL     1      28.512   0.037  54.753  1.00  0.00     0.265 C 
HETATM   31  C1  UNL     1      29.192  -0.681  53.585  1.00  0.00     0.037 C 
ENDBRANCH  28  30
ENDBRANCH  27  28
ENDBRANCH  26  27
ENDBRANCH   1  26
TORSDOF 8
ENDMDL
