MODEL 1
REMARK VINA RESULT:      -8.6      0.000      0.000
REMARK  6 active torsions:
REMARK  status: ('A' for Active; 'I' for Inactive)
REMARK       I    between atoms: C1_2  and  N1_3 
REMARK       I    between atoms: C1_2  and  N2_10 
REMARK    1  A    between atoms: N1_3  and  C2_4 
REMARK    2  A    between atoms: N2_10  and  C8_11 
REMARK    3  A    between atoms: N2_10  and  C13_17 
REMARK    4  A    between atoms: C8_11  and  C9_12 
REMARK    5  A    between atoms: C13_17  and  C14_18 
REMARK    6  A    between atoms: C19_24  and  O2_25 
ROOT
HETATM    1  O1  UNL     1      26.155   2.630  52.186  1.00  0.00    -0.247 OA
HETATM    2  C1  UNL     1      25.006   2.128  51.983  1.00  0.00     0.323 C 
HETATM    3  N1  UNL     1      24.502   2.732  50.794  1.00  0.00    -0.309 N 
HETATM    4  N2  UNL     1      24.309   1.145  52.764  1.00  0.00    -0.325 N 
HETATM    5  H1  UNL     1      23.540   2.450  50.433  1.00  0.00     0.170 HD
ENDROOT
BRANCH   4   6
HETATM    6  C8  UNL     1      23.021   0.794  52.264  1.00  0.00     0.169 C 
BRANCH   6   7
HETATM    7  C9  UNL     1      22.347  -0.179  53.197  1.00  0.00    -0.002 A 
HETATM    8  C10 UNL     1      22.452  -1.510  53.261  1.00  0.00     0.015 A 
HETATM    9  C11 UNL     1      21.509  -1.451  54.368  1.00  0.00     0.043 A 
HETATM   10  C12 UNL     1      21.405  -0.136  54.306  1.00  0.00     0.124 A 
HETATM   11  F1  UNL     1      20.767   0.885  54.915  1.00  0.00    -0.205 F 
ENDBRANCH   6   7
ENDBRANCH   4   6
BRANCH   4  12
HETATM   12  C13 UNL     1      25.107   0.730  53.898  1.00  0.00     0.169 C 
BRANCH  12  13
HETATM   13  C14 UNL     1      26.259  -0.124  53.556  1.00  0.00    -0.005 A 
HETATM   14  C15 UNL     1      26.023  -1.329  52.928  1.00  0.00     0.012 A 
HETATM   15  C16 UNL     1      26.986  -2.235  52.538  1.00  0.00     0.002 A 
HETATM   16  C17 UNL     1      28.326  -1.917  52.793  1.00  0.00     0.026 A 
HETATM   17  C18 UNL     1      28.612  -0.723  53.418  1.00  0.00     0.067 A 
HETATM   18 CL1  UNL     1      30.282  -0.277  53.761  1.00  0.00    -0.081 Cl
HETATM   19  C19 UNL     1      27.591   0.128  53.777  1.00  0.00     0.095 A 
BRANCH  19  20
HETATM   20  O2  UNL     1      27.932   1.315  54.404  1.00  0.00    -0.358 OA
HETATM   21  H16 UNL     1      27.282   2.100  54.253  1.00  0.00     0.217 HD
ENDBRANCH  19  20
ENDBRANCH  12  13
ENDBRANCH   4  12
BRANCH   3  22
HETATM   22  C2  UNL     1      25.328   3.699  50.132  1.00  0.00     0.036 A 
HETATM   23  C3  UNL     1      26.505   3.377  49.482  1.00  0.00     0.029 A 
HETATM   24  C4  UNL     1      27.231   4.378  48.876  1.00  0.00     0.002 A 
HETATM   25  C5  UNL     1      26.802   5.680  48.910  1.00  0.00     0.000 A 
HETATM   26  C6  UNL     1      25.631   6.042  49.550  1.00  0.00     0.002 A 
HETATM   27  C7  UNL     1      24.927   5.012  50.148  1.00  0.00     0.029 A 
ENDBRANCH   3  22
TORSDOF 6
ENDMDL
MODEL 2
REMARK VINA RESULT:      -8.3      2.742      6.275
REMARK  6 active torsions:
REMARK  status: ('A' for Active; 'I' for Inactive)
REMARK       I    between atoms: C1_2  and  N1_3 
REMARK       I    between atoms: C1_2  and  N2_10 
REMARK    1  A    between atoms: N1_3  and  C2_4 
REMARK    2  A    between atoms: N2_10  and  C8_11 
REMARK    3  A    between atoms: N2_10  and  C13_17 
REMARK    4  A    between atoms: C8_11  and  C9_12 
REMARK    5  A    between atoms: C13_17  and  C14_18 
REMARK    6  A    between atoms: C19_24  and  O2_25 
ROOT
HETATM    1  O1  UNL     1      26.768   2.116  50.908  1.00  0.00    -0.247 OA
HETATM    2  C1  UNL     1      25.862   2.732  51.551  1.00  0.00     0.323 C 
HETATM    3  N1  UNL     1      26.096   2.470  52.932  1.00  0.00    -0.309 N 
HETATM    4  N2  UNL     1      24.794   3.542  51.038  1.00  0.00    -0.325 N 
HETATM    5  H1  UNL     1      25.447   2.897  53.662  1.00  0.00     0.170 HD
ENDROOT
BRANCH   4   6
HETATM    6  C8  UNL     1      23.935   4.093  52.034  1.00  0.00     0.169 C 
BRANCH   6   7
HETATM    7  C9  UNL     1      22.689   3.256  52.168  1.00  0.00    -0.002 A 
HETATM    8  C10 UNL     1      21.407   3.635  52.196  1.00  0.00     0.015 A 
HETATM    9  C11 UNL     1      21.077   2.225  52.336  1.00  0.00     0.043 A 
HETATM   10  C12 UNL     1      22.343   1.849  52.308  1.00  0.00     0.124 A 
HETATM   11  F1  UNL     1      23.096   0.732  52.371  1.00  0.00    -0.205 F 
ENDBRANCH   6   7
ENDBRANCH   4   6
BRANCH   4  12
HETATM   12  C13 UNL     1      24.852   3.614  49.594  1.00  0.00     0.169 C 
BRANCH  12  13
HETATM   13  C14 UNL     1      25.344   4.899  49.064  1.00  0.00    -0.005 A 
HETATM   14  C15 UNL     1      24.422   5.852  48.685  1.00  0.00     0.012 A 
HETATM   15  C16 UNL     1      24.717   7.100  48.179  1.00  0.00     0.002 A 
HETATM   16  C17 UNL     1      26.066   7.446  48.033  1.00  0.00     0.026 A 
HETATM   17  C18 UNL     1      27.025   6.526  48.399  1.00  0.00     0.067 A 
HETATM   18 CL1  UNL     1      28.736   6.913  48.234  1.00  0.00    -0.081 Cl
HETATM   19  C19 UNL     1      26.647   5.299  48.896  1.00  0.00     0.095 A 
BRANCH  19  20
HETATM   20  O2  UNL     1      27.650   4.410  49.248  1.00  0.00    -0.358 OA
HETATM   21  H16 UNL     1      27.473   3.854  50.098  1.00  0.00     0.217 HD
ENDBRANCH  19  20
ENDBRANCH  12  13
ENDBRANCH   4  12
BRANCH   3  22
HETATM   22  C2  UNL     1      27.211   1.637  53.277  1.00  0.00     0.036 A 
HETATM   23  C3  UNL     1      28.436   2.133  53.682  1.00  0.00     0.029 A 
HETATM   24  C4  UNL     1      29.447   1.252  53.991  1.00  0.00     0.002 A 
HETATM   25  C5  UNL     1      29.254  -0.103  53.902  1.00  0.00     0.000 A 
HETATM   26  C6  UNL     1      28.043  -0.639  53.502  1.00  0.00     0.002 A 
HETATM   27  C7  UNL     1      27.050   0.276  53.199  1.00  0.00     0.029 A 
ENDBRANCH   3  22
TORSDOF 6
ENDMDL
MODEL 3
REMARK VINA RESULT:      -8.2      3.486      5.278
REMARK  6 active torsions:
REMARK  status: ('A' for Active; 'I' for Inactive)
REMARK       I    between atoms: C1_2  and  N1_3 
REMARK       I    between atoms: C1_2  and  N2_10 
REMARK    1  A    between atoms: N1_3  and  C2_4 
REMARK    2  A    between atoms: N2_10  and  C8_11 
REMARK    3  A    between atoms: N2_10  and  C13_17 
REMARK    4  A    between atoms: C8_11  and  C9_12 
REMARK    5  A    between atoms: C13_17  and  C14_18 
REMARK    6  A    between atoms: C19_24  and  O2_25 
ROOT
HETATM    1  O1  UNL     1      23.168   3.343  51.045  1.00  0.00    -0.247 OA
HETATM    2  C1  UNL     1      23.964   3.328  52.035  1.00  0.00     0.323 C 
HETATM    3  N1  UNL     1      24.172   4.687  52.410  1.00  0.00    -0.309 N 
HETATM    4  N2  UNL     1      24.564   2.196  52.683  1.00  0.00    -0.325 N 
HETATM    5  H1  UNL     1      24.813   4.909  53.232  1.00  0.00     0.170 HD
ENDROOT
BRANCH   4   6
HETATM    6  C8  UNL     1      25.424   2.522  53.771  1.00  0.00     0.169 C 
BRANCH   6   7
HETATM    7  C9  UNL     1      26.528   1.503  53.887  1.00  0.00    -0.002 A 
HETATM    8  C10 UNL     1      27.670   1.401  53.198  1.00  0.00     0.015 A 
HETATM    9  C11 UNL     1      27.957   0.224  54.004  1.00  0.00     0.043 A 
HETATM   10  C12 UNL     1      26.830   0.323  54.685  1.00  0.00     0.124 A 
HETATM   11  F1  UNL     1      26.156  -0.300  55.673  1.00  0.00    -0.205 F 
ENDBRANCH   6   7
ENDBRANCH   4   6
BRANCH   4  12
HETATM   12  C13 UNL     1      24.133   0.961  52.063  1.00  0.00     0.169 C 
BRANCH  12  13
HETATM   13  C14 UNL     1      23.036   0.272  52.769  1.00  0.00    -0.005 A 
HETATM   14  C15 UNL     1      23.341  -0.487  53.879  1.00  0.00     0.012 A 
HETATM   15  C16 UNL     1      22.435  -1.184  54.649  1.00  0.00     0.002 A 
HETATM   16  C17 UNL     1      21.084  -1.125  54.287  1.00  0.00     0.026 A 
HETATM   17  C18 UNL     1      20.730  -0.378  53.184  1.00  0.00     0.067 A 
HETATM   18 CL1  UNL     1      19.042  -0.272  52.687  1.00  0.00    -0.081 Cl
HETATM   19  C19 UNL     1      21.696   0.290  52.467  1.00  0.00     0.095 A 
BRANCH  19  20
HETATM   20  O2  UNL     1      21.288   1.025  51.366  1.00  0.00    -0.358 OA
HETATM   21  H16 UNL     1      20.324   0.849  51.045  1.00  0.00     0.217 HD
ENDBRANCH  19  20
ENDBRANCH  12  13
ENDBRANCH   4  12
BRANCH   3  22
HETATM   22  C2  UNL     1      23.496   5.702  51.655  1.00  0.00     0.036 A 
HETATM   23  C3  UNL     1      22.119   5.800  51.577  1.00  0.00     0.029 A 
HETATM   24  C4  UNL     1      21.562   6.810  50.825  1.00  0.00     0.002 A 
HETATM   25  C5  UNL     1      22.352   7.711  50.158  1.00  0.00     0.000 A 
HETATM   26  C6  UNL     1      23.733   7.646  50.212  1.00  0.00     0.002 A 
HETATM   27  C7  UNL     1      24.258   6.620  50.977  1.00  0.00     0.029 A 
ENDBRANCH   3  22
TORSDOF 6
ENDMDL
MODEL 4
REMARK VINA RESULT:      -8.2      2.627      5.998
REMARK  6 active torsions:
REMARK  status: ('A' for Active; 'I' for Inactive)
REMARK       I    between atoms: C1_2  and  N1_3 
REMARK       I    between atoms: C1_2  and  N2_10 
REMARK    1  A    between atoms: N1_3  and  C2_4 
REMARK    2  A    between atoms: N2_10  and  C8_11 
REMARK    3  A    between atoms: N2_10  and  C13_17 
REMARK    4  A    between atoms: C8_11  and  C9_12 
REMARK    5  A    between atoms: C13_17  and  C14_18 
REMARK    6  A    between atoms: C19_24  and  O2_25 
ROOT
HETATM    1  O1  UNL     1      26.805   1.306  51.124  1.00  0.00    -0.247 OA
HETATM    2  C1  UNL     1      25.892   1.640  51.942  1.00  0.00     0.323 C 
HETATM    3  N1  UNL     1      26.283   1.135  53.216  1.00  0.00    -0.309 N 
HETATM    4  N2  UNL     1      24.688   2.380  51.685  1.00  0.00    -0.325 N 
HETATM    5  H1  UNL     1      25.655   1.306  54.060  1.00  0.00     0.170 HD
ENDROOT
BRANCH   4   6
HETATM    6  C8  UNL     1      23.863   2.585  52.829  1.00  0.00     0.169 C 
BRANCH   6   7
HETATM    7  C9  UNL     1      22.813   1.508  52.914  1.00  0.00    -0.002 A 
HETATM    8  C10 UNL     1      21.502   1.572  52.657  1.00  0.00     0.015 A 
HETATM    9  C11 UNL     1      21.445   0.162  53.009  1.00  0.00     0.043 A 
HETATM   10  C12 UNL     1      22.740   0.096  53.263  1.00  0.00     0.124 A 
HETATM   11  F1  UNL     1      23.676  -0.789  53.662  1.00  0.00    -0.205 F 
ENDBRANCH   6   7
ENDBRANCH   4   6
BRANCH   4  12
HETATM   12  C13 UNL     1      24.604   2.756  50.290  1.00  0.00     0.169 C 
BRANCH  12  13
HETATM   13  C14 UNL     1      25.174   4.079  49.977  1.00  0.00    -0.005 A 
HETATM   14  C15 UNL     1      26.355   4.138  49.267  1.00  0.00     0.012 A 
HETATM   15  C16 UNL     1      27.010   5.290  48.891  1.00  0.00     0.002 A 
HETATM   16  C17 UNL     1      26.440   6.517  49.252  1.00  0.00     0.026 A 
HETATM   17  C18 UNL     1      25.259   6.509  49.963  1.00  0.00     0.067 A 
HETATM   18 CL1  UNL     1      24.502   8.027  50.442  1.00  0.00    -0.081 Cl
HETATM   19  C19 UNL     1      24.667   5.314  50.301  1.00  0.00     0.095 A 
BRANCH  19  20
HETATM   20  O2  UNL     1      23.482   5.363  51.017  1.00  0.00    -0.358 OA
HETATM   21  H16 UNL     1      23.395   4.675  51.780  1.00  0.00     0.217 HD
ENDBRANCH  19  20
ENDBRANCH  12  13
ENDBRANCH   4  12
BRANCH   3  22
HETATM   22  C2  UNL     1      27.520   0.415  53.301  1.00  0.00     0.036 A 
HETATM   23  C3  UNL     1      28.733   1.016  53.580  1.00  0.00     0.029 A 
HETATM   24  C4  UNL     1      29.868   0.239  53.640  1.00  0.00     0.002 A 
HETATM   25  C5  UNL     1      29.808  -1.114  53.426  1.00  0.00     0.000 A 
HETATM   26  C6  UNL     1      28.615  -1.753  53.144  1.00  0.00     0.002 A 
HETATM   27  C7  UNL     1      27.495  -0.942  53.092  1.00  0.00     0.029 A 
ENDBRANCH   3  22
TORSDOF 6
ENDMDL
MODEL 5
REMARK VINA RESULT:      -8.1      3.409      5.192
REMARK  6 active torsions:
REMARK  status: ('A' for Active; 'I' for Inactive)
REMARK       I    between atoms: C1_2  and  N1_3 
REMARK       I    between atoms: C1_2  and  N2_10 
REMARK    1  A    between atoms: N1_3  and  C2_4 
REMARK    2  A    between atoms: N2_10  and  C8_11 
REMARK    3  A    between atoms: N2_10  and  C13_17 
REMARK    4  A    between atoms: C8_11  and  C9_12 
REMARK    5  A    between atoms: C13_17  and  C14_18 
REMARK    6  A    between atoms: C19_24  and  O2_25 
ROOT
HETATM    1  O1  UNL     1      24.108   2.411  50.596  1.00  0.00    -0.247 OA
HETATM    2  C1  UNL     1      24.716   2.620  51.692  1.00  0.00     0.323 C 
HETATM    3  N1  UNL     1      24.987   4.018  51.746  1.00  0.00    -0.309 N 
HETATM    4  N2  UNL     1      25.081   1.672  52.707  1.00  0.00    -0.325 N 
HETATM    5  H1  UNL     1      25.495   4.419  52.592  1.00  0.00     0.170 HD
ENDROOT
BRANCH   4   6
HETATM    6  C8  UNL     1      25.768   2.233  53.823  1.00  0.00     0.169 C 
BRANCH   6   7
HETATM    7  C9  UNL     1      27.120   1.587  53.981  1.00  0.00    -0.002 A 
HETATM    8  C10 UNL     1      27.435   0.365  54.422  1.00  0.00     0.015 A 
HETATM    9  C11 UNL     1      28.825   0.729  54.197  1.00  0.00     0.043 A 
HETATM   10  C12 UNL     1      28.516   1.937  53.761  1.00  0.00     0.124 A 
HETATM   11  F1  UNL     1      29.108   3.058  53.301  1.00  0.00    -0.205 F 
ENDBRANCH   6   7
ENDBRANCH   4   6
BRANCH   4  12
HETATM   12  C13 UNL     1      24.645   0.340  52.347  1.00  0.00     0.169 C 
BRANCH  12  13
HETATM   13  C14 UNL     1      23.429  -0.116  53.045  1.00  0.00    -0.005 A 
HETATM   14  C15 UNL     1      23.564  -0.728  54.273  1.00  0.00     0.012 A 
HETATM   15  C16 UNL     1      22.531  -1.202  55.053  1.00  0.00     0.002 A 
HETATM   16  C17 UNL     1      21.225  -1.056  54.570  1.00  0.00     0.026 A 
HETATM   17  C18 UNL     1      21.039  -0.450  53.346  1.00  0.00     0.067 A 
HETATM   18 CL1  UNL     1      19.415  -0.243  52.695  1.00  0.00    -0.081 Cl
HETATM   19  C19 UNL     1      22.125  -0.003  52.628  1.00  0.00     0.095 A 
BRANCH  19  20
HETATM   20  O2  UNL     1      21.884   0.598  51.404  1.00  0.00    -0.358 OA
HETATM   21  H16 UNL     1      20.959   1.041  51.300  1.00  0.00     0.217 HD
ENDBRANCH  19  20
ENDBRANCH  12  13
ENDBRANCH   4  12
BRANCH   3  22
HETATM   22  C2  UNL     1      24.554   4.828  50.644  1.00  0.00     0.036 A 
HETATM   23  C3  UNL     1      23.249   5.252  50.480  1.00  0.00     0.029 A 
HETATM   24  C4  UNL     1      22.930   6.027  49.387  1.00  0.00     0.002 A 
HETATM   25  C5  UNL     1      23.885   6.379  48.468  1.00  0.00     0.000 A 
HETATM   26  C6  UNL     1      25.201   5.974  48.598  1.00  0.00     0.002 A 
HETATM   27  C7  UNL     1      25.486   5.197  49.706  1.00  0.00     0.029 A 
ENDBRANCH   3  22
TORSDOF 6
ENDMDL
MODEL 6
REMARK VINA RESULT:      -8.0      3.718      6.648
REMARK  6 active torsions:
REMARK  status: ('A' for Active; 'I' for Inactive)
REMARK       I    between atoms: C1_2  and  N1_3 
REMARK       I    between atoms: C1_2  and  N2_10 
REMARK    1  A    between atoms: N1_3  and  C2_4 
REMARK    2  A    between atoms: N2_10  and  C8_11 
REMARK    3  A    between atoms: N2_10  and  C13_17 
REMARK    4  A    between atoms: C8_11  and  C9_12 
REMARK    5  A    between atoms: C13_17  and  C14_18 
REMARK    6  A    between atoms: C19_24  and  O2_25 
ROOT
HETATM    1  O1  UNL     1      24.994  -0.113  54.101  1.00  0.00    -0.247 OA
HETATM    2  C1  UNL     1      24.603   0.358  52.988  1.00  0.00     0.323 C 
HETATM    3  N1  UNL     1      25.750   0.417  52.145  1.00  0.00    -0.309 N 
HETATM    4  N2  UNL     1      23.280   0.765  52.604  1.00  0.00    -0.325 N 
HETATM    5  H1  UNL     1      25.649   0.784  51.150  1.00  0.00     0.170 HD
ENDROOT
BRANCH   4   6
HETATM    6  C8  UNL     1      23.175   1.261  51.272  1.00  0.00     0.169 C 
BRANCH   6   7
HETATM    7  C9  UNL     1      23.451   2.742  51.244  1.00  0.00    -0.002 A 
HETATM    8  C10 UNL     1      22.979   3.713  52.033  1.00  0.00     0.015 A 
HETATM    9  C11 UNL     1      23.779   4.635  51.241  1.00  0.00     0.043 A 
HETATM   10  C12 UNL     1      24.246   3.677  50.460  1.00  0.00     0.124 A 
HETATM   11  F1  UNL     1      25.069   3.506  49.406  1.00  0.00    -0.205 F 
ENDBRANCH   6   7
ENDBRANCH   4   6
BRANCH   4  12
HETATM   12  C13 UNL     1      22.345   0.561  53.690  1.00  0.00     0.169 C 
BRANCH  12  13
HETATM   13  C14 UNL     1      20.986   0.180  53.264  1.00  0.00    -0.005 A 
HETATM   14  C15 UNL     1      20.368   0.928  52.283  1.00  0.00     0.012 A 
HETATM   15  C16 UNL     1      19.109   0.700  51.772  1.00  0.00     0.002 A 
HETATM   16  C17 UNL     1      18.381  -0.382  52.281  1.00  0.00     0.026 A 
HETATM   17  C18 UNL     1      18.956  -1.159  53.263  1.00  0.00     0.067 A 
HETATM   18 CL1  UNL     1      18.080  -2.532  53.936  1.00  0.00    -0.081 Cl
HETATM   19  C19 UNL     1      20.220  -0.865  53.720  1.00  0.00     0.095 A 
BRANCH  19  20
HETATM   20  O2  UNL     1      20.752  -1.676  54.709  1.00  0.00    -0.358 OA
HETATM   21  H16 UNL     1      21.537  -1.272  55.242  1.00  0.00     0.217 HD
ENDBRANCH  19  20
ENDBRANCH  12  13
ENDBRANCH   4  12
BRANCH   3  22
HETATM   22  C2  UNL     1      27.002  -0.030  52.685  1.00  0.00     0.036 A 
HETATM   23  C3  UNL     1      27.384  -1.358  52.721  1.00  0.00     0.029 A 
HETATM   24  C4  UNL     1      28.607  -1.688  53.260  1.00  0.00     0.002 A 
HETATM   25  C5  UNL     1      29.442  -0.722  53.759  1.00  0.00     0.000 A 
HETATM   26  C6  UNL     1      29.096   0.617  53.742  1.00  0.00     0.002 A 
HETATM   27  C7  UNL     1      27.861   0.912  53.193  1.00  0.00     0.029 A 
ENDBRANCH   3  22
TORSDOF 6
ENDMDL
MODEL 7
REMARK VINA RESULT:      -7.9      3.773      6.672
REMARK  6 active torsions:
REMARK  status: ('A' for Active; 'I' for Inactive)
REMARK       I    between atoms: C1_2  and  N1_3 
REMARK       I    between atoms: C1_2  and  N2_10 
REMARK    1  A    between atoms: N1_3  and  C2_4 
REMARK    2  A    between atoms: N2_10  and  C8_11 
REMARK    3  A    between atoms: N2_10  and  C13_17 
REMARK    4  A    between atoms: C8_11  and  C9_12 
REMARK    5  A    between atoms: C13_17  and  C14_18 
REMARK    6  A    between atoms: C19_24  and  O2_25 
ROOT
HETATM    1  O1  UNL     1      24.346   2.780  53.404  1.00  0.00    -0.247 OA
HETATM    2  C1  UNL     1      23.787   2.053  52.525  1.00  0.00     0.323 C 
HETATM    3  N1  UNL     1      24.719   1.027  52.195  1.00  0.00    -0.309 N 
HETATM    4  N2  UNL     1      22.480   2.193  51.947  1.00  0.00    -0.325 N 
HETATM    5  H1  UNL     1      24.453   0.293  51.469  1.00  0.00     0.170 HD
ENDROOT
BRANCH   4   6
HETATM    6  C8  UNL     1      22.153   1.205  50.973  1.00  0.00     0.169 C 
BRANCH   6   7
HETATM    7  C9  UNL     1      22.321   1.767  49.585  1.00  0.00    -0.002 A 
HETATM    8  C10 UNL     1      21.645   1.488  48.465  1.00  0.00     0.015 A 
HETATM    9  C11 UNL     1      22.503   2.459  47.802  1.00  0.00     0.043 A 
HETATM   10  C12 UNL     1      23.171   2.735  48.907  1.00  0.00     0.124 A 
HETATM   11  F1  UNL     1      24.181   3.516  49.342  1.00  0.00    -0.205 F 
ENDBRANCH   6   7
ENDBRANCH   4   6
BRANCH   4  12
HETATM   12  C13 UNL     1      21.787   3.330  52.513  1.00  0.00     0.169 C 
BRANCH  12  13
HETATM   13  C14 UNL     1      21.779   4.531  51.658  1.00  0.00    -0.005 A 
HETATM   14  C15 UNL     1      20.746   4.693  50.759  1.00  0.00     0.012 A 
HETATM   15  C16 UNL     1      20.589   5.757  49.897  1.00  0.00     0.002 A 
HETATM   16  C17 UNL     1      21.555   6.771  49.925  1.00  0.00     0.026 A 
HETATM   17  C18 UNL     1      22.607   6.653  50.808  1.00  0.00     0.067 A 
HETATM   18 CL1  UNL     1      23.849   7.902  50.881  1.00  0.00    -0.081 Cl
HETATM   19  C19 UNL     1      22.691   5.558  51.636  1.00  0.00     0.095 A 
BRANCH  19  20
HETATM   20  O2  UNL     1      23.769   5.487  52.503  1.00  0.00    -0.358 OA
HETATM   21  H16 UNL     1      24.541   4.872  52.204  1.00  0.00     0.217 HD
ENDBRANCH  19  20
ENDBRANCH  12  13
ENDBRANCH   4  12
BRANCH   3  22
HETATM   22  C2  UNL     1      25.986   1.030  52.867  1.00  0.00     0.036 A 
HETATM   23  C3  UNL     1      27.088   1.730  52.410  1.00  0.00     0.029 A 
HETATM   24  C4  UNL     1      28.262   1.671  53.125  1.00  0.00     0.002 A 
HETATM   25  C5  UNL     1      28.351   0.930  54.276  1.00  0.00     0.000 A 
HETATM   26  C6  UNL     1      27.272   0.216  54.765  1.00  0.00     0.002 A 
HETATM   27  C7  UNL     1      26.108   0.299  54.022  1.00  0.00     0.029 A 
ENDBRANCH   3  22
TORSDOF 6
ENDMDL
MODEL 8
REMARK VINA RESULT:      -7.9      3.101      6.380
REMARK  6 active torsions:
REMARK  status: ('A' for Active; 'I' for Inactive)
REMARK       I    between atoms: C1_2  and  N1_3 
REMARK       I    between atoms: C1_2  and  N2_10 
REMARK    1  A    between atoms: N1_3  and  C2_4 
REMARK    2  A    between atoms: N2_10  and  C8_11 
REMARK    3  A    between atoms: N2_10  and  C13_17 
REMARK    4  A    between atoms: C8_11  and  C9_12 
REMARK    5  A    between atoms: C13_17  and  C14_18 
REMARK    6  A    between atoms: C19_24  and  O2_25 
ROOT
HETATM    1  O1  UNL     1      27.231   1.682  51.428  1.00  0.00    -0.247 OA
HETATM    2  C1  UNL     1      26.230   1.894  52.181  1.00  0.00     0.323 C 
HETATM    3  N1  UNL     1      26.390   1.051  53.319  1.00  0.00    -0.309 N 
HETATM    4  N2  UNL     1      25.129   2.793  51.973  1.00  0.00    -0.325 N 
HETATM    5  H1  UNL     1      25.655   1.070  54.090  1.00  0.00     0.170 HD
ENDROOT
BRANCH   4   6
HETATM    6  C8  UNL     1      24.157   2.791  53.015  1.00  0.00     0.169 C 
BRANCH   6   7
HETATM    7  C9  UNL     1      22.942   2.006  52.593  1.00  0.00    -0.002 A 
HETATM    8  C10 UNL     1      22.785   0.685  52.459  1.00  0.00     0.015 A 
HETATM    9  C11 UNL     1      21.415   0.969  52.060  1.00  0.00     0.043 A 
HETATM   10  C12 UNL     1      21.568   2.274  52.192  1.00  0.00     0.124 A 
HETATM   11  F1  UNL     1      20.872   3.421  52.054  1.00  0.00    -0.205 F 
ENDBRANCH   6   7
ENDBRANCH   4   6
BRANCH   4  12
HETATM   12  C13 UNL     1      25.280   3.510  50.725  1.00  0.00     0.169 C 
BRANCH  12  13
HETATM   13  C14 UNL     1      24.053   4.174  50.248  1.00  0.00    -0.005 A 
HETATM   14  C15 UNL     1      23.309   3.555  49.266  1.00  0.00     0.012 A 
HETATM   15  C16 UNL     1      22.139   4.038  48.719  1.00  0.00     0.002 A 
HETATM   16  C17 UNL     1      21.651   5.261  49.192  1.00  0.00     0.026 A 
HETATM   17  C18 UNL     1      22.360   5.918  50.175  1.00  0.00     0.067 A 
HETATM   18 CL1  UNL     1      21.787   7.462  50.803  1.00  0.00    -0.081 Cl
HETATM   19  C19 UNL     1      23.521   5.368  50.669  1.00  0.00     0.095 A 
BRANCH  19  20
HETATM   20  O2  UNL     1      24.197   6.069  51.654  1.00  0.00    -0.358 OA
HETATM   21  H16 UNL     1      24.691   6.917  51.337  1.00  0.00     0.217 HD
ENDBRANCH  19  20
ENDBRANCH  12  13
ENDBRANCH   4  12
BRANCH   3  22
HETATM   22  C2  UNL     1      27.551   0.210  53.371  1.00  0.00     0.036 A 
HETATM   23  C3  UNL     1      28.790   0.650  53.796  1.00  0.00     0.029 A 
HETATM   24  C4  UNL     1      29.846  -0.234  53.810  1.00  0.00     0.002 A 
HETATM   25  C5  UNL     1      29.681  -1.535  53.409  1.00  0.00     0.000 A 
HETATM   26  C6  UNL     1      28.458  -2.013  52.978  1.00  0.00     0.002 A 
HETATM   27  C7  UNL     1      27.420  -1.099  52.977  1.00  0.00     0.029 A 
ENDBRANCH   3  22
TORSDOF 6
ENDMDL
MODEL 9
REMARK VINA RESULT:      -7.8      1.957      2.607
REMARK  6 active torsions:
REMARK  status: ('A' for Active; 'I' for Inactive)
REMARK       I    between atoms: C1_2  and  N1_3 
REMARK       I    between atoms: C1_2  and  N2_10 
REMARK    1  A    between atoms: N1_3  and  C2_4 
REMARK    2  A    between atoms: N2_10  and  C8_11 
REMARK    3  A    between atoms: N2_10  and  C13_17 
REMARK    4  A    between atoms: C8_11  and  C9_12 
REMARK    5  A    between atoms: C13_17  and  C14_18 
REMARK    6  A    between atoms: C19_24  and  O2_25 
ROOT
HETATM    1  O1  UNL     1      25.489   4.300  51.378  1.00  0.00    -0.247 OA
HETATM    2  C1  UNL     1      24.612   3.612  50.767  1.00  0.00     0.323 C 
HETATM    3  N1  UNL     1      24.757   3.909  49.381  1.00  0.00    -0.309 N 
HETATM    4  N2  UNL     1      23.646   2.704  51.317  1.00  0.00    -0.325 N 
HETATM    5  H1  UNL     1      24.115   3.434  48.676  1.00  0.00     0.170 HD
ENDROOT
BRANCH   4   6
HETATM    6  C8  UNL     1      22.794   2.090  50.353  1.00  0.00     0.169 C 
BRANCH   6   7
HETATM    7  C9  UNL     1      21.560   1.541  51.022  1.00  0.00    -0.002 A 
HETATM    8  C10 UNL     1      21.074   0.296  51.025  1.00  0.00     0.015 A 
HETATM    9  C11 UNL     1      19.997   0.804  51.861  1.00  0.00     0.043 A 
HETATM   10  C12 UNL     1      20.476   2.035  51.860  1.00  0.00     0.124 A 
HETATM   11  F1  UNL     1      20.197   3.258  52.354  1.00  0.00    -0.205 F 
ENDBRANCH   6   7
ENDBRANCH   4   6
BRANCH   4  12
HETATM   12  C13 UNL     1      23.778   2.622  52.755  1.00  0.00     0.169 C 
BRANCH  12  13
HETATM   13  C14 UNL     1      24.612   1.502  53.231  1.00  0.00    -0.005 A 
HETATM   14  C15 UNL     1      24.085   0.228  53.198  1.00  0.00     0.012 A 
HETATM   15  C16 UNL     1      24.734  -0.921  53.599  1.00  0.00     0.002 A 
HETATM   16  C17 UNL     1      26.042  -0.800  54.082  1.00  0.00     0.026 A 
HETATM   17  C18 UNL     1      26.612   0.454  54.133  1.00  0.00     0.067 A 
HETATM   18 CL1  UNL     1      28.256   0.659  54.734  1.00  0.00    -0.081 Cl
HETATM   19  C19 UNL     1      25.897   1.553  53.714  1.00  0.00     0.095 A 
BRANCH  19  20
HETATM   20  O2  UNL     1      26.514   2.790  53.788  1.00  0.00    -0.358 OA
HETATM   21  H16 UNL     1      25.923   3.563  54.129  1.00  0.00     0.217 HD
ENDBRANCH  19  20
ENDBRANCH  12  13
ENDBRANCH   4  12
BRANCH   3  22
HETATM   22  C2  UNL     1      25.775   4.843  48.998  1.00  0.00     0.036 A 
HETATM   23  C3  UNL     1      25.524   6.176  48.732  1.00  0.00     0.029 A 
HETATM   24  C4  UNL     1      26.569   6.995  48.370  1.00  0.00     0.002 A 
HETATM   25  C5  UNL     1      27.847   6.507  48.270  1.00  0.00     0.000 A 
HETATM   26  C6  UNL     1      28.139   5.180  48.528  1.00  0.00     0.002 A 
HETATM   27  C7  UNL     1      27.065   4.386  48.890  1.00  0.00     0.029 A 
ENDBRANCH   3  22
TORSDOF 6
ENDMDL
