MODEL 1
REMARK VINA RESULT:      -8.0      0.000      0.000
REMARK  8 active torsions:
REMARK  status: ('A' for Active; 'I' for Inactive)
REMARK    1  A    between atoms: C2_2  and  O1_3 
REMARK    2  A    between atoms: C2_2  and  C4_5 
REMARK    3  A    between atoms: C10_15  and  C11_16 
REMARK    4  A    between atoms: C11_16  and  C12_17 
REMARK    5  A    between atoms: C13_19  and  C14_20 
REMARK    6  A    between atoms: C14_20  and  C15_21 
REMARK    7  A    between atoms: C15_21  and  C16_22 
REMARK    8  A    between atoms: C16_22  and  N4_23 
ROOT
HETATM    1  C4  UNL     1      24.063   3.683  50.121  1.00  0.00     0.225 C 
HETATM    2  O2  UNL     1      23.057   3.283  49.498  1.00  0.00    -0.371 OA
HETATM    3  C5  UNL     1      21.962   2.585  49.576  1.00  0.00     0.213 C 
HETATM    4  C6  UNL     1      20.781   2.873  50.377  1.00  0.00     0.029 A 
HETATM    5  C7  UNL     1      19.963   3.837  49.798  1.00  0.00     0.131 A 
HETATM    6  N1  UNL     1      18.805   4.311  50.276  1.00  0.00    -0.253 NA
HETATM    7  C8  UNL     1      18.283   3.878  51.427  1.00  0.00     0.234 A 
HETATM    8  N2  UNL     1      19.011   2.946  52.049  1.00  0.00    -0.224 NA
HETATM    9  C9  UNL     1      20.153   2.486  51.569  1.00  0.00     0.139 A 
HETATM   10  N3  UNL     1      20.909   1.516  52.246  1.00  0.00    -0.340 N 
HETATM   11  C10 UNL     1      21.769   0.741  53.021  1.00  0.00     0.037 C 
HETATM   12  C13 UNL     1      23.081   0.695  52.927  1.00  0.00    -0.032 C 
HETATM   13  C21 UNL     1      24.021   1.430  52.141  1.00  0.00     0.032 C 
HETATM   14  C22 UNL     1      24.160   2.390  51.262  1.00  0.00     0.196 C 
HETATM   15  F1  UNL     1      22.953   2.728  51.634  1.00  0.00    -0.231 F 
HETATM   16  H11 UNL     1      20.429   0.679  51.796  1.00  0.00     0.167 HD
ENDROOT
BRANCH  12  17
HETATM   17  C14 UNL     1      24.000  -0.136  53.748  1.00  0.00     0.042 C 
BRANCH  17  18
HETATM   18  C15 UNL     1      25.160  -0.653  53.003  1.00  0.00     0.035 C 
BRANCH  18  19
HETATM   19  C16 UNL     1      26.503  -0.645  53.607  1.00  0.00     0.273 C 
BRANCH  19  20
HETATM   20  N4  UNL     1      27.674  -0.292  52.915  1.00  0.00     0.092 N 
HETATM   21  C17 UNL     1      27.527   1.140  52.484  1.00  0.00     0.298 C 
HETATM   22  C18 UNL     1      27.872   2.083  53.545  1.00  0.00     0.198 C 
HETATM   23  O3  UNL     1      28.586   1.708  54.619  1.00  0.00    -0.388 OA
HETATM   24  C19 UNL     1      28.769   0.388  54.907  1.00  0.00     0.198 C 
HETATM   25  C20 UNL     1      28.936  -0.356  53.625  1.00  0.00     0.298 C 
ENDBRANCH  19  20
ENDBRANCH  18  19
ENDBRANCH  17  18
ENDBRANCH  12  17
BRANCH  11  26
HETATM   26  C11 UNL     1      21.354  -0.175  54.072  1.00  0.00     0.025 C 
BRANCH  26  27
HETATM   27  C12 UNL     1      20.276  -0.857  53.791  1.00  0.00     0.261 C 
HETATM   28 CL1  UNL     1      18.635  -1.078  53.263  1.00  0.00    -0.251 Cl
ENDBRANCH  26  27
ENDBRANCH  11  26
BRANCH   1  29
HETATM   29  C2  UNL     1      23.220   4.719  51.218  1.00  0.00     0.069 C 
HETATM   30  C1  UNL     1      22.766   4.790  52.447  1.00  0.00     0.049 C 
BRANCH  29  31
HETATM   31  O1  UNL     1      23.119   5.676  50.250  1.00  0.00    -0.358 OA
HETATM   32  C3  UNL     1      22.252   6.741  50.150  1.00  0.00     0.209 C 
ENDBRANCH  29  31
ENDBRANCH   1  29
TORSDOF 8
ENDMDL
MODEL 2
REMARK VINA RESULT:      -7.8      1.888      2.517
REMARK  8 active torsions:
REMARK  status: ('A' for Active; 'I' for Inactive)
REMARK    1  A    between atoms: C2_2  and  O1_3 
REMARK    2  A    between atoms: C2_2  and  C4_5 
REMARK    3  A    between atoms: C10_15  and  C11_16 
REMARK    4  A    between atoms: C11_16  and  C12_17 
REMARK    5  A    between atoms: C13_19  and  C14_20 
REMARK    6  A    between atoms: C14_20  and  C15_21 
REMARK    7  A    between atoms: C15_21  and  C16_22 
REMARK    8  A    between atoms: C16_22  and  N4_23 
ROOT
HETATM    1  C4  UNL     1      21.773   4.094  49.357  1.00  0.00     0.225 C 
HETATM    2  O2  UNL     1      21.368   3.016  48.872  1.00  0.00    -0.371 OA
HETATM    3  C5  UNL     1      21.217   1.741  49.084  1.00  0.00     0.213 C 
HETATM    4  C6  UNL     1      20.343   1.100  50.055  1.00  0.00     0.029 A 
HETATM    5  C7  UNL     1      19.019   1.047  49.633  1.00  0.00     0.131 A 
HETATM    6  N1  UNL     1      17.980   0.514  50.288  1.00  0.00    -0.253 NA
HETATM    7  C8  UNL     1      18.116  -0.059  51.487  1.00  0.00     0.234 A 
HETATM    8  N2  UNL     1      19.363  -0.050  51.967  1.00  0.00    -0.224 NA
HETATM    9  C9  UNL     1      20.382   0.479  51.312  1.00  0.00     0.139 A 
HETATM   10  N3  UNL     1      21.683   0.490  51.841  1.00  0.00    -0.340 N 
HETATM   11  C10 UNL     1      22.911   0.714  52.457  1.00  0.00     0.037 C 
HETATM   12  C13 UNL     1      23.767   1.673  52.173  1.00  0.00    -0.032 C 
HETATM   13  C21 UNL     1      23.708   2.791  51.286  1.00  0.00     0.032 C 
HETATM   14  C22 UNL     1      22.958   3.436  50.428  1.00  0.00     0.196 C 
HETATM   15  F1  UNL     1      21.979   2.769  50.981  1.00  0.00    -0.231 F 
HETATM   16  H11 UNL     1      21.965  -0.454  51.436  1.00  0.00     0.167 HD
ENDROOT
BRANCH  12  17
HETATM   17  C14 UNL     1      25.082   1.910  52.825  1.00  0.00     0.042 C 
BRANCH  17  18
HETATM   18  C15 UNL     1      26.236   1.642  51.952  1.00  0.00     0.035 C 
BRANCH  18  19
HETATM   19  C16 UNL     1      27.176   0.553  52.265  1.00  0.00     0.273 C 
BRANCH  19  20
HETATM   20  N4  UNL     1      27.085  -0.259  53.409  1.00  0.00     0.092 N 
HETATM   21  C17 UNL     1      27.751  -1.566  53.086  1.00  0.00     0.298 C 
HETATM   22  C18 UNL     1      29.203  -1.510  53.244  1.00  0.00     0.198 C 
HETATM   23  O3  UNL     1      29.800  -0.534  53.949  1.00  0.00    -0.388 OA
HETATM   24  C19 UNL     1      29.115   0.591  54.299  1.00  0.00     0.198 C 
HETATM   25  C20 UNL     1      27.712   0.205  54.631  1.00  0.00     0.298 C 
ENDBRANCH  19  20
ENDBRANCH  18  19
ENDBRANCH  17  18
ENDBRANCH  12  17
BRANCH  11  26
HETATM   26  C11 UNL     1      23.474  -0.098  53.525  1.00  0.00     0.025 C 
BRANCH  26  27
HETATM   27  C12 UNL     1      22.664  -1.018  53.979  1.00  0.00     0.261 C 
HETATM   28 CL1  UNL     1      21.156  -1.650  54.566  1.00  0.00    -0.251 Cl
ENDBRANCH  26  27
ENDBRANCH  11  26
BRANCH   1  29
HETATM   29  C2  UNL     1      20.576   4.216  50.598  1.00  0.00     0.069 C 
HETATM   30  C1  UNL     1      20.376   4.015  51.878  1.00  0.00     0.049 C 
BRANCH  29  31
HETATM   31  O1  UNL     1      19.673   4.691  49.691  1.00  0.00    -0.358 OA
HETATM   32  C3  UNL     1      18.300   4.761  49.768  1.00  0.00     0.209 C 
ENDBRANCH  29  31
ENDBRANCH   1  29
TORSDOF 8
ENDMDL
MODEL 3
REMARK VINA RESULT:      -7.6      2.981      4.597
REMARK  8 active torsions:
REMARK  status: ('A' for Active; 'I' for Inactive)
REMARK    1  A    between atoms: C2_2  and  O1_3 
REMARK    2  A    between atoms: C2_2  and  C4_5 
REMARK    3  A    between atoms: C10_15  and  C11_16 
REMARK    4  A    between atoms: C11_16  and  C12_17 
REMARK    5  A    between atoms: C13_19  and  C14_20 
REMARK    6  A    between atoms: C14_20  and  C15_21 
REMARK    7  A    between atoms: C15_21  and  C16_22 
REMARK    8  A    between atoms: C16_22  and  N4_23 
ROOT
HETATM    1  C4  UNL     1      21.513   0.939  52.507  1.00  0.00     0.225 C 
HETATM    2  O2  UNL     1      21.124   2.118  52.641  1.00  0.00    -0.371 OA
HETATM    3  C5  UNL     1      21.327   3.355  52.290  1.00  0.00     0.213 C 
HETATM    4  C6  UNL     1      21.171   3.940  50.966  1.00  0.00     0.029 A 
HETATM    5  C7  UNL     1      19.844   4.213  50.654  1.00  0.00     0.131 A 
HETATM    6  N1  UNL     1      19.372   4.760  49.526  1.00  0.00    -0.253 NA
HETATM    7  C8  UNL     1      20.177   5.123  48.525  1.00  0.00     0.234 A 
HETATM    8  N2  UNL     1      21.475   4.893  48.745  1.00  0.00    -0.224 NA
HETATM    9  C9  UNL     1      21.930   4.352  49.862  1.00  0.00     0.139 A 
HETATM   10  N3  UNL     1      23.296   4.106  50.068  1.00  0.00    -0.340 N 
HETATM   11  C10 UNL     1      24.607   3.646  50.177  1.00  0.00     0.037 C 
HETATM   12  C13 UNL     1      25.027   2.646  50.924  1.00  0.00    -0.032 C 
HETATM   13  C21 UNL     1      24.341   1.692  51.737  1.00  0.00     0.032 C 
HETATM   14  C22 UNL     1      23.166   1.279  52.140  1.00  0.00     0.196 C 
HETATM   15  F1  UNL     1      22.720   1.966  51.121  1.00  0.00    -0.231 F 
HETATM   16  H11 UNL     1      23.509   5.060  50.491  1.00  0.00     0.167 HD
ENDROOT
BRANCH  12  17
HETATM   17  C14 UNL     1      26.425   2.158  51.048  1.00  0.00     0.042 C 
BRANCH  17  18
HETATM   18  C15 UNL     1      27.012   2.367  52.381  1.00  0.00     0.035 C 
BRANCH  18  19
HETATM   19  C16 UNL     1      27.955   1.388  52.947  1.00  0.00     0.273 C 
BRANCH  19  20
HETATM   20  N4  UNL     1      27.718   0.658  54.125  1.00  0.00     0.092 N 
HETATM   21  C17 UNL     1      26.591  -0.295  53.844  1.00  0.00     0.298 C 
HETATM   22  C18 UNL     1      27.041  -1.516  53.181  1.00  0.00     0.198 C 
HETATM   23  O3  UNL     1      28.333  -1.884  53.179  1.00  0.00    -0.388 OA
HETATM   24  C19 UNL     1      29.308  -1.002  53.537  1.00  0.00     0.198 C 
HETATM   25  C20 UNL     1      28.793  -0.157  54.654  1.00  0.00     0.298 C 
ENDBRANCH  19  20
ENDBRANCH  18  19
ENDBRANCH  17  18
ENDBRANCH  12  17
BRANCH  11  26
HETATM   26  C11 UNL     1      25.754   4.212  49.486  1.00  0.00     0.025 C 
BRANCH  26  27
HETATM   27  C12 UNL     1      25.554   5.414  49.015  1.00  0.00     0.261 C 
HETATM   28 CL1  UNL     1      25.993   6.898  48.224  1.00  0.00    -0.251 Cl
ENDBRANCH  26  27
ENDBRANCH  11  26
BRANCH   1  29
HETATM   29  C2  UNL     1      21.076   0.771  50.843  1.00  0.00     0.069 C 
HETATM   30  C1  UNL     1      21.554   0.854  49.625  1.00  0.00     0.049 C 
BRANCH  29  31
HETATM   31  O1  UNL     1      19.797   0.455  51.203  1.00  0.00    -0.358 OA
HETATM   32  C3  UNL     1      18.615   0.658  50.526  1.00  0.00     0.209 C 
ENDBRANCH  29  31
ENDBRANCH   1  29
TORSDOF 8
ENDMDL
MODEL 4
REMARK VINA RESULT:      -7.5      3.651      5.833
REMARK  8 active torsions:
REMARK  status: ('A' for Active; 'I' for Inactive)
REMARK    1  A    between atoms: C2_2  and  O1_3 
REMARK    2  A    between atoms: C2_2  and  C4_5 
REMARK    3  A    between atoms: C10_15  and  C11_16 
REMARK    4  A    between atoms: C11_16  and  C12_17 
REMARK    5  A    between atoms: C13_19  and  C14_20 
REMARK    6  A    between atoms: C14_20  and  C15_21 
REMARK    7  A    between atoms: C15_21  and  C16_22 
REMARK    8  A    between atoms: C16_22  and  N4_23 
ROOT
HETATM    1  C4  UNL     1      21.254   3.500  48.908  1.00  0.00     0.225 C 
HETATM    2  O2  UNL     1      21.180   2.267  49.097  1.00  0.00    -0.371 OA
HETATM    3  C5  UNL     1      21.754   1.236  49.645  1.00  0.00     0.213 C 
HETATM    4  C6  UNL     1      21.946   0.976  51.065  1.00  0.00     0.029 A 
HETATM    5  C7  UNL     1      20.798   0.493  51.681  1.00  0.00     0.131 A 
HETATM    6  N1  UNL     1      20.651   0.149  52.968  1.00  0.00    -0.253 NA
HETATM    7  C8  UNL     1      21.656   0.239  53.843  1.00  0.00     0.234 A 
HETATM    8  N2  UNL     1      22.801   0.697  53.329  1.00  0.00    -0.224 NA
HETATM    9  C9  UNL     1      22.934   1.035  52.058  1.00  0.00     0.139 A 
HETATM   10  N3  UNL     1      24.142   1.527  51.541  1.00  0.00    -0.340 N 
HETATM   11  C10 UNL     1      25.253   2.232  51.083  1.00  0.00     0.037 C 
HETATM   12  C13 UNL     1      25.282   3.085  50.081  1.00  0.00    -0.032 C 
HETATM   13  C21 UNL     1      24.260   3.626  49.242  1.00  0.00     0.032 C 
HETATM   14  C22 UNL     1      22.972   3.647  49.003  1.00  0.00     0.196 C 
HETATM   15  F1  UNL     1      22.873   3.151  50.208  1.00  0.00    -0.231 F 
HETATM   16  H11 UNL     1      24.542   0.573  51.287  1.00  0.00     0.167 HD
ENDROOT
BRANCH  12  17
HETATM   17  C14 UNL     1      26.467   3.834  49.587  1.00  0.00     0.042 C 
BRANCH  17  18
HETATM   18  C15 UNL     1      26.179   5.232  49.226  1.00  0.00     0.035 C 
BRANCH  18  19
HETATM   19  C16 UNL     1      27.193   6.054  48.545  1.00  0.00     0.273 C 
BRANCH  19  20
HETATM   20  N4  UNL     1      26.917   7.279  47.914  1.00  0.00     0.092 N 
HETATM   21  C17 UNL     1      26.136   8.119  48.885  1.00  0.00     0.298 C 
HETATM   22  C18 UNL     1      26.994   8.810  49.845  1.00  0.00     0.198 C 
HETATM   23  O3  UNL     1      28.312   8.964  49.632  1.00  0.00    -0.388 OA
HETATM   24  C19 UNL     1      28.950   8.243  48.668  1.00  0.00     0.198 C 
HETATM   25  C20 UNL     1      28.034   8.103  47.498  1.00  0.00     0.298 C 
ENDBRANCH  19  20
ENDBRANCH  18  19
ENDBRANCH  17  18
ENDBRANCH  12  17
BRANCH  11  26
HETATM   26  C11 UNL     1      26.595   2.132  51.635  1.00  0.00     0.025 C 
BRANCH  26  27
HETATM   27  C12 UNL     1      26.919   0.932  52.037  1.00  0.00     0.261 C 
HETATM   28 CL1  UNL     1      26.682  -0.772  52.287  1.00  0.00    -0.251 Cl
ENDBRANCH  26  27
ENDBRANCH  11  26
BRANCH   1  29
HETATM   29  C2  UNL     1      21.024   3.969  50.556  1.00  0.00     0.069 C 
HETATM   30  C1  UNL     1      21.665   4.384  51.622  1.00  0.00     0.049 C 
BRANCH  29  31
HETATM   31  O1  UNL     1      19.682   3.744  50.441  1.00  0.00    -0.358 OA
HETATM   32  C3  UNL     1      18.730   3.572  51.421  1.00  0.00     0.209 C 
ENDBRANCH  29  31
ENDBRANCH   1  29
TORSDOF 8
ENDMDL
MODEL 5
REMARK VINA RESULT:      -7.3      2.631      6.738
REMARK  8 active torsions:
REMARK  status: ('A' for Active; 'I' for Inactive)
REMARK    1  A    between atoms: C2_2  and  O1_3 
REMARK    2  A    between atoms: C2_2  and  C4_5 
REMARK    3  A    between atoms: C10_15  and  C11_16 
REMARK    4  A    between atoms: C11_16  and  C12_17 
REMARK    5  A    between atoms: C13_19  and  C14_20 
REMARK    6  A    between atoms: C14_20  and  C15_21 
REMARK    7  A    between atoms: C15_21  and  C16_22 
REMARK    8  A    between atoms: C16_22  and  N4_23 
ROOT
HETATM    1  C4  UNL     1      28.036   1.273  53.287  1.00  0.00     0.225 C 
HETATM    2  O2  UNL     1      27.166   1.436  54.168  1.00  0.00    -0.371 OA
HETATM    3  C5  UNL     1      25.894   1.593  54.395  1.00  0.00     0.213 C 
HETATM    4  C6  UNL     1      24.826   0.629  54.170  1.00  0.00     0.029 A 
HETATM    5  C7  UNL     1      24.748  -0.329  55.175  1.00  0.00     0.131 A 
HETATM    6  N1  UNL     1      23.873  -1.338  55.267  1.00  0.00    -0.253 NA
HETATM    7  C8  UNL     1      22.926  -1.541  54.347  1.00  0.00     0.234 A 
HETATM    8  N2  UNL     1      22.932  -0.660  53.342  1.00  0.00    -0.224 NA
HETATM    9  C9  UNL     1      23.801   0.332  53.260  1.00  0.00     0.139 A 
HETATM   10  N3  UNL     1      23.799   1.239  52.189  1.00  0.00    -0.340 N 
HETATM   11  C10 UNL     1      23.950   1.985  51.022  1.00  0.00     0.037 C 
HETATM   12  C13 UNL     1      25.057   2.560  50.597  1.00  0.00    -0.032 C 
HETATM   13  C21 UNL     1      26.402   2.542  51.079  1.00  0.00     0.032 C 
HETATM   14  C22 UNL     1      27.205   2.054  51.990  1.00  0.00     0.196 C 
HETATM   15  F1  UNL     1      26.252   1.177  52.173  1.00  0.00    -0.231 F 
HETATM   16  H11 UNL     1      23.118   1.925  52.636  1.00  0.00     0.167 HD
ENDROOT
BRANCH  12  17
HETATM   17  C14 UNL     1      25.220   3.361  49.357  1.00  0.00     0.042 C 
BRANCH  17  18
HETATM   18  C15 UNL     1      25.716   4.727  49.592  1.00  0.00     0.035 C 
BRANCH  18  19
HETATM   19  C16 UNL     1      24.776   5.840  49.802  1.00  0.00     0.273 C 
BRANCH  19  20
HETATM   20  N4  UNL     1      24.486   6.398  51.059  1.00  0.00     0.092 N 
HETATM   21  C17 UNL     1      23.975   7.792  50.825  1.00  0.00     0.298 C 
HETATM   22  C18 UNL     1      22.554   7.819  50.487  1.00  0.00     0.198 C 
HETATM   23  O3  UNL     1      21.749   6.771  50.734  1.00  0.00    -0.388 OA
HETATM   24  C19 UNL     1      22.270   5.549  51.038  1.00  0.00     0.198 C 
HETATM   25  C20 UNL     1      23.484   5.750  51.882  1.00  0.00     0.298 C 
ENDBRANCH  19  20
ENDBRANCH  18  19
ENDBRANCH  17  18
ENDBRANCH  12  17
BRANCH  11  26
HETATM   26  C11 UNL     1      22.892   2.274  50.068  1.00  0.00     0.025 C 
BRANCH  26  27
HETATM   27  C12 UNL     1      21.898   1.425  50.100  1.00  0.00     0.261 C 
HETATM   28 CL1  UNL     1      20.667   0.456  50.853  1.00  0.00    -0.251 Cl
ENDBRANCH  26  27
ENDBRANCH  11  26
BRANCH   1  29
HETATM   29  C2  UNL     1      27.528  -0.304  52.794  1.00  0.00     0.069 C 
HETATM   30  C1  UNL     1      26.719  -0.931  51.974  1.00  0.00     0.049 C 
BRANCH  29  31
HETATM   31  O1  UNL     1      28.390  -0.870  53.689  1.00  0.00    -0.358 OA
HETATM   32  C3  UNL     1      29.443  -1.733  53.474  1.00  0.00     0.209 C 
ENDBRANCH  29  31
ENDBRANCH   1  29
TORSDOF 8
ENDMDL
MODEL 6
REMARK VINA RESULT:      -7.1      3.122      6.988
REMARK  8 active torsions:
REMARK  status: ('A' for Active; 'I' for Inactive)
REMARK    1  A    between atoms: C2_2  and  O1_3 
REMARK    2  A    between atoms: C2_2  and  C4_5 
REMARK    3  A    between atoms: C10_15  and  C11_16 
REMARK    4  A    between atoms: C11_16  and  C12_17 
REMARK    5  A    between atoms: C13_19  and  C14_20 
REMARK    6  A    between atoms: C14_20  and  C15_21 
REMARK    7  A    between atoms: C15_21  and  C16_22 
REMARK    8  A    between atoms: C16_22  and  N4_23 
ROOT
HETATM    1  C4  UNL     1      28.358   0.913  53.238  1.00  0.00     0.225 C 
HETATM    2  O2  UNL     1      27.632   1.104  54.236  1.00  0.00    -0.371 OA
HETATM    3  C5  UNL     1      26.416   1.328  54.644  1.00  0.00     0.213 C 
HETATM    4  C6  UNL     1      25.271   0.433  54.556  1.00  0.00     0.029 A 
HETATM    5  C7  UNL     1      25.277  -0.544  55.546  1.00  0.00     0.131 A 
HETATM    6  N1  UNL     1      24.365  -1.504  55.744  1.00  0.00    -0.253 NA
HETATM    7  C8  UNL     1      23.287  -1.628  54.964  1.00  0.00     0.234 A 
HETATM    8  N2  UNL     1      23.205  -0.724  53.984  1.00  0.00    -0.224 NA
HETATM    9  C9  UNL     1      24.113   0.219  53.797  1.00  0.00     0.139 A 
HETATM   10  N3  UNL     1      24.014   1.151  52.752  1.00  0.00    -0.340 N 
HETATM   11  C10 UNL     1      24.045   1.916  51.588  1.00  0.00     0.037 C 
HETATM   12  C13 UNL     1      25.113   2.437  51.021  1.00  0.00    -0.032 C 
HETATM   13  C21 UNL     1      26.509   2.330  51.306  1.00  0.00     0.032 C 
HETATM   14  C22 UNL     1      27.401   1.773  52.086  1.00  0.00     0.196 C 
HETATM   15  F1  UNL     1      26.433   0.949  52.387  1.00  0.00    -0.231 F 
HETATM   16  H11 UNL     1      23.446   1.863  53.303  1.00  0.00     0.167 HD
ENDROOT
BRANCH  12  17
HETATM   17  C14 UNL     1      25.148   3.259  49.783  1.00  0.00     0.042 C 
BRANCH  17  18
HETATM   18  C15 UNL     1      26.459   3.873  49.514  1.00  0.00     0.035 C 
BRANCH  18  19
HETATM   19  C16 UNL     1      26.555   5.283  49.102  1.00  0.00     0.273 C 
BRANCH  19  20
HETATM   20  N4  UNL     1      25.456   6.154  49.018  1.00  0.00     0.092 N 
HETATM   21  C17 UNL     1      25.499   7.050  50.224  1.00  0.00     0.298 C 
HETATM   22  C18 UNL     1      26.406   8.182  50.050  1.00  0.00     0.198 C 
HETATM   23  O3  UNL     1      26.836   8.562  48.834  1.00  0.00    -0.388 OA
HETATM   24  C19 UNL     1      26.682   7.745  47.755  1.00  0.00     0.198 C 
HETATM   25  C20 UNL     1      25.371   7.043  47.877  1.00  0.00     0.298 C 
ENDBRANCH  19  20
ENDBRANCH  18  19
ENDBRANCH  17  18
ENDBRANCH  12  17
BRANCH  11  26
HETATM   26  C11 UNL     1      22.882   2.289  50.799  1.00  0.00     0.025 C 
BRANCH  26  27
HETATM   27  C12 UNL     1      21.829   2.594  51.511  1.00  0.00     0.261 C 
HETATM   28 CL1  UNL     1      20.576   3.634  52.117  1.00  0.00    -0.251 Cl
ENDBRANCH  26  27
ENDBRANCH  11  26
BRANCH   1  29
HETATM   29  C2  UNL     1      27.691  -0.619  52.795  1.00  0.00     0.069 C 
HETATM   30  C1  UNL     1      26.760  -1.179  52.061  1.00  0.00     0.049 C 
BRANCH  29  31
HETATM   31  O1  UNL     1      28.597  -1.253  53.596  1.00  0.00    -0.358 OA
HETATM   32  C3  UNL     1      29.352  -2.380  53.353  1.00  0.00     0.209 C 
ENDBRANCH  29  31
ENDBRANCH   1  29
TORSDOF 8
ENDMDL
MODEL 7
REMARK VINA RESULT:      -7.0      3.107      6.562
REMARK  8 active torsions:
REMARK  status: ('A' for Active; 'I' for Inactive)
REMARK    1  A    between atoms: C2_2  and  O1_3 
REMARK    2  A    between atoms: C2_2  and  C4_5 
REMARK    3  A    between atoms: C10_15  and  C11_16 
REMARK    4  A    between atoms: C11_16  and  C12_17 
REMARK    5  A    between atoms: C13_19  and  C14_20 
REMARK    6  A    between atoms: C14_20  and  C15_21 
REMARK    7  A    between atoms: C15_21  and  C16_22 
REMARK    8  A    between atoms: C16_22  and  N4_23 
ROOT
HETATM    1  C4  UNL     1      20.712   4.565  51.039  1.00  0.00     0.225 C 
HETATM    2  O2  UNL     1      21.767   5.057  51.492  1.00  0.00    -0.371 OA
HETATM    3  C5  UNL     1      22.905   4.797  52.068  1.00  0.00     0.213 C 
HETATM    4  C6  UNL     1      24.031   4.056  51.517  1.00  0.00     0.029 A 
HETATM    5  C7  UNL     1      24.802   4.821  50.649  1.00  0.00     0.131 A 
HETATM    6  N1  UNL     1      25.905   4.438  49.992  1.00  0.00    -0.253 NA
HETATM    7  C8  UNL     1      26.409   3.207  50.113  1.00  0.00     0.234 A 
HETATM    8  N2  UNL     1      25.724   2.405  50.933  1.00  0.00    -0.224 NA
HETATM    9  C9  UNL     1      24.636   2.793  51.575  1.00  0.00     0.139 A 
HETATM   10  N3  UNL     1      23.923   1.930  52.422  1.00  0.00    -0.340 N 
HETATM   11  C10 UNL     1      23.089   1.018  53.065  1.00  0.00     0.037 C 
HETATM   12  C13 UNL     1      21.787   1.129  53.232  1.00  0.00    -0.032 C 
HETATM   13  C21 UNL     1      20.830   2.083  52.768  1.00  0.00     0.032 C 
HETATM   14  C22 UNL     1      20.660   3.161  52.044  1.00  0.00     0.196 C 
HETATM   15  F1  UNL     1      21.825   2.849  51.540  1.00  0.00    -0.231 F 
HETATM   16  H11 UNL     1      24.477   2.166  53.300  1.00  0.00     0.167 HD
ENDROOT
BRANCH  12  17
HETATM   17  C14 UNL     1      20.896   0.161  53.923  1.00  0.00     0.042 C 
BRANCH  17  18
HETATM   18  C15 UNL     1      20.107  -0.679  53.007  1.00  0.00     0.035 C 
BRANCH  18  19
HETATM   19  C16 UNL     1      18.637  -0.602  52.997  1.00  0.00     0.273 C 
BRANCH  19  20
HETATM   20  N4  UNL     1      17.840  -0.928  51.887  1.00  0.00     0.092 N 
HETATM   21  C17 UNL     1      16.447  -1.179  52.392  1.00  0.00     0.298 C 
HETATM   22  C18 UNL     1      15.685   0.054  52.573  1.00  0.00     0.198 C 
HETATM   23  O3  UNL     1      16.063   1.209  51.999  1.00  0.00    -0.388 OA
HETATM   24  C19 UNL     1      17.311   1.347  51.469  1.00  0.00     0.198 C 
HETATM   25  C20 UNL     1      17.699   0.055  50.831  1.00  0.00     0.298 C 
ENDBRANCH  19  20
ENDBRANCH  18  19
ENDBRANCH  17  18
ENDBRANCH  12  17
BRANCH  11  26
HETATM   26  C11 UNL     1      23.523  -0.223  53.686  1.00  0.00     0.025 C 
BRANCH  26  27
HETATM   27  C12 UNL     1      24.791  -0.491  53.514  1.00  0.00     0.261 C 
HETATM   28 CL1  UNL     1      26.277  -0.610  52.620  1.00  0.00    -0.251 Cl
ENDBRANCH  26  27
ENDBRANCH  11  26
BRANCH   1  29
HETATM   29  C2  UNL     1      21.438   3.714  49.721  1.00  0.00     0.069 C 
HETATM   30  C1  UNL     1      21.795   2.518  49.321  1.00  0.00     0.049 C 
BRANCH  29  31
HETATM   31  O1  UNL     1      21.582   4.886  49.034  1.00  0.00    -0.358 OA
HETATM   32  C3  UNL     1      22.312   5.158  47.898  1.00  0.00     0.209 C 
ENDBRANCH  29  31
ENDBRANCH   1  29
TORSDOF 8
ENDMDL
MODEL 8
REMARK VINA RESULT:      -7.0      3.023      5.693
REMARK  8 active torsions:
REMARK  status: ('A' for Active; 'I' for Inactive)
REMARK    1  A    between atoms: C2_2  and  O1_3 
REMARK    2  A    between atoms: C2_2  and  C4_5 
REMARK    3  A    between atoms: C10_15  and  C11_16 
REMARK    4  A    between atoms: C11_16  and  C12_17 
REMARK    5  A    between atoms: C13_19  and  C14_20 
REMARK    6  A    between atoms: C14_20  and  C15_21 
REMARK    7  A    between atoms: C15_21  and  C16_22 
REMARK    8  A    between atoms: C16_22  and  N4_23 
ROOT
HETATM    1  C4  UNL     1      21.016   3.021  49.061  1.00  0.00     0.225 C 
HETATM    2  O2  UNL     1      20.939   1.801  49.321  1.00  0.00    -0.371 OA
HETATM    3  C5  UNL     1      21.487   0.810  49.961  1.00  0.00     0.213 C 
HETATM    4  C6  UNL     1      21.604   0.639  51.402  1.00  0.00     0.029 A 
HETATM    5  C7  UNL     1      20.426   0.184  51.985  1.00  0.00     0.131 A 
HETATM    6  N1  UNL     1      20.212  -0.082  53.280  1.00  0.00    -0.253 NA
HETATM    7  C8  UNL     1      21.168   0.069  54.201  1.00  0.00     0.234 A 
HETATM    8  N2  UNL     1      22.336   0.504  53.721  1.00  0.00    -0.224 NA
HETATM    9  C9  UNL     1      22.536   0.765  52.441  1.00  0.00     0.139 A 
HETATM   10  N3  UNL     1      23.768   1.235  51.960  1.00  0.00    -0.340 N 
HETATM   11  C10 UNL     1      24.899   1.921  51.521  1.00  0.00     0.037 C 
HETATM   12  C13 UNL     1      24.977   2.712  50.471  1.00  0.00    -0.032 C 
HETATM   13  C21 UNL     1      23.999   3.192  49.547  1.00  0.00     0.032 C 
HETATM   14  C22 UNL     1      22.726   3.188  49.239  1.00  0.00     0.196 C 
HETATM   15  F1  UNL     1      22.565   2.765  50.465  1.00  0.00    -0.231 F 
HETATM   16  H11 UNL     1      24.185   0.271  51.788  1.00  0.00     0.167 HD
ENDROOT
BRANCH  12  17
HETATM   17  C14 UNL     1      26.183   3.439  49.997  1.00  0.00     0.042 C 
BRANCH  17  18
HETATM   18  C15 UNL     1      25.879   4.645  49.209  1.00  0.00     0.035 C 
BRANCH  18  19
HETATM   19  C16 UNL     1      25.697   5.947  49.872  1.00  0.00     0.273 C 
BRANCH  19  20
HETATM   20  N4  UNL     1      25.428   7.146  49.190  1.00  0.00     0.092 N 
HETATM   21  C17 UNL     1      24.307   6.872  48.226  1.00  0.00     0.298 C 
HETATM   22  C18 UNL     1      22.993   6.940  48.861  1.00  0.00     0.198 C 
HETATM   23  O3  UNL     1      22.812   7.542  50.048  1.00  0.00    -0.388 OA
HETATM   24  C19 UNL     1      23.876   7.855  50.839  1.00  0.00     0.198 C 
HETATM   25  C20 UNL     1      25.002   8.295  49.964  1.00  0.00     0.298 C 
ENDBRANCH  19  20
ENDBRANCH  18  19
ENDBRANCH  17  18
ENDBRANCH  12  17
BRANCH  11  26
HETATM   26  C11 UNL     1      26.209   1.865  52.149  1.00  0.00     0.025 C 
BRANCH  26  27
HETATM   27  C12 UNL     1      26.209   1.324  53.338  1.00  0.00     0.261 C 
HETATM   28 CL1  UNL     1      26.098   0.023  54.485  1.00  0.00    -0.251 Cl
ENDBRANCH  26  27
ENDBRANCH  11  26
BRANCH   1  29
HETATM   29  C2  UNL     1      20.696   3.587  50.663  1.00  0.00     0.069 C 
HETATM   30  C1  UNL     1      21.269   4.111  51.719  1.00  0.00     0.049 C 
BRANCH  29  31
HETATM   31  O1  UNL     1      19.374   3.276  50.516  1.00  0.00    -0.358 OA
HETATM   32  C3  UNL     1      18.333   3.413  51.407  1.00  0.00     0.209 C 
ENDBRANCH  29  31
ENDBRANCH   1  29
TORSDOF 8
ENDMDL
MODEL 9
REMARK VINA RESULT:      -6.9      3.736      5.375
REMARK  8 active torsions:
REMARK  status: ('A' for Active; 'I' for Inactive)
REMARK    1  A    between atoms: C2_2  and  O1_3 
REMARK    2  A    between atoms: C2_2  and  C4_5 
REMARK    3  A    between atoms: C10_15  and  C11_16 
REMARK    4  A    between atoms: C11_16  and  C12_17 
REMARK    5  A    between atoms: C13_19  and  C14_20 
REMARK    6  A    between atoms: C14_20  and  C15_21 
REMARK    7  A    between atoms: C15_21  and  C16_22 
REMARK    8  A    between atoms: C16_22  and  N4_23 
ROOT
HETATM    1  C4  UNL     1      21.112   3.775  50.953  1.00  0.00     0.225 C 
HETATM    2  O2  UNL     1      21.314   4.917  51.415  1.00  0.00    -0.371 OA
HETATM    3  C5  UNL     1      22.132   5.929  51.439  1.00  0.00     0.213 C 
HETATM    4  C6  UNL     1      22.484   6.814  50.338  1.00  0.00     0.029 A 
HETATM    5  C7  UNL     1      21.514   7.780  50.096  1.00  0.00     0.131 A 
HETATM    6  N1  UNL     1      21.543   8.744  49.166  1.00  0.00    -0.253 NA
HETATM    7  C8  UNL     1      22.571   8.885  48.326  1.00  0.00     0.234 A 
HETATM    8  N2  UNL     1      23.551   7.992  48.492  1.00  0.00    -0.224 NA
HETATM    9  C9  UNL     1      23.511   7.044  49.413  1.00  0.00     0.139 A 
HETATM   10  N3  UNL     1      24.545   6.107  49.562  1.00  0.00    -0.340 N 
HETATM   11  C10 UNL     1      25.444   5.043  49.556  1.00  0.00     0.037 C 
HETATM   12  C13 UNL     1      25.215   3.820  49.989  1.00  0.00    -0.032 C 
HETATM   13  C21 UNL     1      24.040   3.173  50.481  1.00  0.00     0.032 C 
HETATM   14  C22 UNL     1      22.763   3.320  50.727  1.00  0.00     0.196 C 
HETATM   15  F1  UNL     1      22.864   4.360  49.942  1.00  0.00    -0.231 F 
HETATM   16  H11 UNL     1      25.116   6.691  50.246  1.00  0.00     0.167 HD
ENDROOT
BRANCH  12  17
HETATM   17  C14 UNL     1      26.174   2.685  49.989  1.00  0.00     0.042 C 
BRANCH  17  18
HETATM   18  C15 UNL     1      26.712   2.361  51.321  1.00  0.00     0.035 C 
BRANCH  18  19
HETATM   19  C16 UNL     1      26.241   1.172  52.050  1.00  0.00     0.273 C 
BRANCH  19  20
HETATM   20  N4  UNL     1      27.009   0.010  52.237  1.00  0.00     0.092 N 
HETATM   21  C17 UNL     1      28.104   0.346  53.210  1.00  0.00     0.298 C 
HETATM   22  C18 UNL     1      27.660   0.273  54.600  1.00  0.00     0.198 C 
HETATM   23  O3  UNL     1      26.537  -0.377  54.951  1.00  0.00    -0.388 OA
HETATM   24  C19 UNL     1      25.623  -0.744  54.010  1.00  0.00     0.198 C 
HETATM   25  C20 UNL     1      26.355  -1.165  52.779  1.00  0.00     0.298 C 
ENDBRANCH  19  20
ENDBRANCH  18  19
ENDBRANCH  17  18
ENDBRANCH  12  17
BRANCH  11  26
HETATM   26  C11 UNL     1      26.816   5.107  49.077  1.00  0.00     0.025 C 
BRANCH  26  27
HETATM   27  C12 UNL     1      27.136   6.246  48.524  1.00  0.00     0.261 C 
HETATM   28 CL1  UNL     1      26.921   7.607  47.464  1.00  0.00    -0.251 Cl
ENDBRANCH  26  27
ENDBRANCH  11  26
BRANCH   1  29
HETATM   29  C2  UNL     1      20.917   4.257  49.304  1.00  0.00     0.069 C 
HETATM   30  C1  UNL     1      21.527   4.277  48.144  1.00  0.00     0.049 C 
BRANCH  29  31
HETATM   31  O1  UNL     1      19.664   4.724  49.581  1.00  0.00    -0.358 OA
HETATM   32  C3  UNL     1      18.846   5.546  48.838  1.00  0.00     0.209 C 
ENDBRANCH  29  31
ENDBRANCH   1  29
TORSDOF 8
ENDMDL
