MODEL 1
REMARK VINA RESULT:      -8.3      0.000      0.000
REMARK  6 active torsions:
REMARK  status: ('A' for Active; 'I' for Inactive)
REMARK    1  A    between atoms: C5_5  and  C6_6 
REMARK    2  A    between atoms: C6_6  and  N1_8 
REMARK    3  A    between atoms: N1_8  and  C8_9 
REMARK    4  A    between atoms: C10_11  and  N2_12 
REMARK    5  A    between atoms: N2_12  and  C11_13 
REMARK    6  A    between atoms: C11_13  and  C12_14 
ROOT
HETATM    1  C8  UNL     1      24.287   4.421  50.327  1.00  0.00     0.133 A 
HETATM    2  C9  UNL     1      23.453   3.907  51.321  1.00  0.00     0.100 A 
HETATM    3  C10 UNL     1      22.182   3.450  51.032  1.00  0.00     0.128 A 
HETATM    4  N3  UNL     1      21.726   3.494  49.768  1.00  0.00    -0.225 NA
HETATM    5  C18 UNL     1      22.528   3.989  48.821  1.00  0.00     0.237 A 
HETATM    6  N4  UNL     1      23.766   4.436  49.086  1.00  0.00    -0.224 NA
ENDROOT
BRANCH   1   7
HETATM    7  N1  UNL     1      25.608   4.881  50.665  1.00  0.00    -0.342 N 
HETATM    8  H8  UNL     1      25.784   5.744  51.254  1.00  0.00     0.167 HD
BRANCH   7   9
HETATM    9  C6  UNL     1      26.438   3.892  50.017  1.00  0.00     0.025 C 
HETATM   10  C7  UNL     1      27.203   4.344  49.045  1.00  0.00     0.043 C 
BRANCH   9  11
HETATM   11  C5  UNL     1      26.390   2.502  50.454  1.00  0.00     0.040 C 
HETATM   12  C4  UNL     1      26.816   1.784  51.472  1.00  0.00    -0.030 A 
HETATM   13  C3  UNL     1      26.565   0.327  51.569  1.00  0.00     0.043 A 
HETATM   14  C19 UNL     1      27.559   2.438  52.540  1.00  0.00     0.036 A 
HETATM   15  C2  UNL     1      27.071  -0.214  52.665  1.00  0.00     0.049 A 
HETATM   16  C1  UNL     1      26.829  -1.687  52.788  1.00  0.00     0.076 C 
HETATM   17  O1  UNL     1      27.774   0.434  53.666  1.00  0.00    -0.327 OA
HETATM   18  C20 UNL     1      28.017   1.800  53.587  1.00  0.00     0.143 A 
ENDBRANCH   9  11
ENDBRANCH   7   9
ENDBRANCH   1   7
BRANCH   3  19
HETATM   19  N2  UNL     1      21.351   2.938  52.072  1.00  0.00    -0.370 N 
HETATM   20  H10 UNL     1      21.161   3.536  52.905  1.00  0.00     0.161 HD
BRANCH  19  21
HETATM   21  C11 UNL     1      20.770   1.610  51.992  1.00  0.00     0.160 C 
BRANCH  21  22
HETATM   22  C12 UNL     1      21.516   0.702  52.931  1.00  0.00    -0.040 A 
HETATM   23  C13 UNL     1      22.838   0.336  52.747  1.00  0.00     0.012 A 
HETATM   24  C14 UNL     1      23.456  -0.494  53.654  1.00  0.00     0.043 A 
HETATM   25  C15 UNL     1      22.734  -0.958  54.753  1.00  0.00     0.116 A 
HETATM   26  F1  UNL     1      23.327  -1.769  55.647  1.00  0.00    -0.206 F 
HETATM   27  C16 UNL     1      21.409  -0.586  54.928  1.00  0.00     0.043 A 
HETATM   28  C17 UNL     1      20.785   0.259  54.004  1.00  0.00     0.012 A 
ENDBRANCH  21  22
ENDBRANCH  19  21
ENDBRANCH   3  19
TORSDOF 6
ENDMDL
MODEL 2
REMARK VINA RESULT:      -8.0      3.160      6.387
REMARK  6 active torsions:
REMARK  status: ('A' for Active; 'I' for Inactive)
REMARK    1  A    between atoms: C5_5  and  C6_6 
REMARK    2  A    between atoms: C6_6  and  N1_8 
REMARK    3  A    between atoms: N1_8  and  C8_9 
REMARK    4  A    between atoms: C10_11  and  N2_12 
REMARK    5  A    between atoms: N2_12  and  C11_13 
REMARK    6  A    between atoms: C11_13  and  C12_14 
ROOT
HETATM    1  C8  UNL     1      27.161  -0.061  53.387  1.00  0.00     0.133 A 
HETATM    2  C9  UNL     1      26.662   0.953  52.567  1.00  0.00     0.100 A 
HETATM    3  C10 UNL     1      27.352   2.134  52.379  1.00  0.00     0.128 A 
HETATM    4  N3  UNL     1      28.534   2.325  52.993  1.00  0.00    -0.225 NA
HETATM    5  C18 UNL     1      29.006   1.352  53.777  1.00  0.00     0.237 A 
HETATM    6  N4  UNL     1      28.347   0.197  53.970  1.00  0.00    -0.224 NA
ENDROOT
BRANCH   1   7
HETATM    7  N1  UNL     1      26.418  -1.281  53.553  1.00  0.00    -0.342 N 
HETATM    8  H8  UNL     1      26.784  -2.226  53.241  1.00  0.00     0.167 HD
BRANCH   7   9
HETATM    9  C6  UNL     1      25.214  -0.808  54.193  1.00  0.00     0.025 C 
HETATM   10  C7  UNL     1      25.214  -0.855  55.510  1.00  0.00     0.043 C 
BRANCH   9  11
HETATM   11  C5  UNL     1      24.102  -0.321  53.385  1.00  0.00     0.040 C 
HETATM   12  C4  UNL     1      22.792  -0.455  53.345  1.00  0.00    -0.030 A 
HETATM   13  C3  UNL     1      21.961   0.228  52.325  1.00  0.00     0.043 A 
HETATM   14  C19 UNL     1      22.135  -1.299  54.332  1.00  0.00     0.036 A 
HETATM   15  C2  UNL     1      20.671  -0.031  52.453  1.00  0.00     0.049 A 
HETATM   16  C1  UNL     1      19.808   0.648  51.434  1.00  0.00     0.076 C 
HETATM   17  O1  UNL     1      20.072  -0.840  53.403  1.00  0.00    -0.327 OA
HETATM   18  C20 UNL     1      20.840  -1.485  54.364  1.00  0.00     0.143 A 
ENDBRANCH   9  11
ENDBRANCH   7   9
ENDBRANCH   1   7
BRANCH   3  19
HETATM   19  N2  UNL     1      26.812   3.154  51.542  1.00  0.00    -0.370 N 
HETATM   20  H10 UNL     1      26.955   4.152  51.808  1.00  0.00     0.161 HD
BRANCH  19  21
HETATM   21  C11 UNL     1      26.071   2.830  50.336  1.00  0.00     0.160 C 
BRANCH  21  22
HETATM   22  C12 UNL     1      24.614   3.116  50.576  1.00  0.00    -0.040 A 
HETATM   23  C13 UNL     1      23.619   2.817  49.662  1.00  0.00     0.012 A 
HETATM   24  C14 UNL     1      22.304   3.102  49.955  1.00  0.00     0.043 A 
HETATM   25  C15 UNL     1      21.994   3.691  51.180  1.00  0.00     0.116 A 
HETATM   26  F1  UNL     1      20.714   3.974  51.479  1.00  0.00    -0.206 F 
HETATM   27  C16 UNL     1      22.999   3.988  52.089  1.00  0.00     0.043 A 
HETATM   28  C17 UNL     1      24.333   3.696  51.787  1.00  0.00     0.012 A 
ENDBRANCH  21  22
ENDBRANCH  19  21
ENDBRANCH   3  19
TORSDOF 6
ENDMDL
MODEL 3
REMARK VINA RESULT:      -7.9      2.558      5.778
REMARK  6 active torsions:
REMARK  status: ('A' for Active; 'I' for Inactive)
REMARK    1  A    between atoms: C5_5  and  C6_6 
REMARK    2  A    between atoms: C6_6  and  N1_8 
REMARK    3  A    between atoms: N1_8  and  C8_9 
REMARK    4  A    between atoms: C10_11  and  N2_12 
REMARK    5  A    between atoms: N2_12  and  C11_13 
REMARK    6  A    between atoms: C11_13  and  C12_14 
ROOT
HETATM    1  C8  UNL     1      21.803   0.557  52.270  1.00  0.00     0.133 A 
HETATM    2  C9  UNL     1      22.377   1.260  51.208  1.00  0.00     0.100 A 
HETATM    3  C10 UNL     1      21.940   2.522  50.859  1.00  0.00     0.128 A 
HETATM    4  N3  UNL     1      20.941   3.101  51.548  1.00  0.00    -0.225 NA
HETATM    5  C18 UNL     1      20.395   2.424  52.561  1.00  0.00     0.237 A 
HETATM    6  N4  UNL     1      20.808   1.196  52.915  1.00  0.00    -0.224 NA
ENDROOT
BRANCH   1   7
HETATM    7  N1  UNL     1      22.289  -0.753  52.610  1.00  0.00    -0.342 N 
HETATM    8  H8  UNL     1      22.106  -1.609  52.011  1.00  0.00     0.167 HD
BRANCH   7   9
HETATM    9  C6  UNL     1      22.993  -0.494  53.844  1.00  0.00     0.025 C 
HETATM   10  C7  UNL     1      22.517  -1.109  54.908  1.00  0.00     0.043 C 
BRANCH   9  11
HETATM   11  C5  UNL     1      24.147   0.396  53.851  1.00  0.00     0.040 C 
HETATM   12  C4  UNL     1      25.436   0.326  53.587  1.00  0.00    -0.030 A 
HETATM   13  C3  UNL     1      26.332   1.498  53.718  1.00  0.00     0.043 A 
HETATM   14  C19 UNL     1      26.002  -0.943  53.151  1.00  0.00     0.036 A 
HETATM   15  C2  UNL     1      27.589   1.226  53.407  1.00  0.00     0.049 A 
HETATM   16  C1  UNL     1      28.516   2.395  53.530  1.00  0.00     0.076 C 
HETATM   17  O1  UNL     1      28.100   0.007  52.995  1.00  0.00    -0.327 OA
HETATM   18  C20 UNL     1      27.270  -1.100  52.868  1.00  0.00     0.143 A 
ENDBRANCH   9  11
ENDBRANCH   7   9
ENDBRANCH   1   7
BRANCH   3  19
HETATM   19  N2  UNL     1      22.542   3.210  49.764  1.00  0.00    -0.370 N 
HETATM   20  H10 UNL     1      22.611   2.727  48.842  1.00  0.00     0.161 HD
BRANCH  19  21
HETATM   21  C11 UNL     1      23.057   4.560  49.909  1.00  0.00     0.160 C 
BRANCH  21  22
HETATM   22  C12 UNL     1      24.520   4.556  49.562  1.00  0.00    -0.040 A 
HETATM   23  C13 UNL     1      25.355   3.478  49.795  1.00  0.00     0.012 A 
HETATM   24  C14 UNL     1      26.685   3.545  49.444  1.00  0.00     0.043 A 
HETATM   25  C15 UNL     1      27.172   4.710  48.853  1.00  0.00     0.116 A 
HETATM   26  F1  UNL     1      28.468   4.789  48.503  1.00  0.00    -0.206 F 
HETATM   27  C16 UNL     1      26.327   5.786  48.624  1.00  0.00     0.043 A 
HETATM   28  C17 UNL     1      24.977   5.712  48.982  1.00  0.00     0.012 A 
ENDBRANCH  21  22
ENDBRANCH  19  21
ENDBRANCH   3  19
TORSDOF 6
ENDMDL
MODEL 4
REMARK VINA RESULT:      -7.8      2.605      5.378
REMARK  6 active torsions:
REMARK  status: ('A' for Active; 'I' for Inactive)
REMARK    1  A    between atoms: C5_5  and  C6_6 
REMARK    2  A    between atoms: C6_6  and  N1_8 
REMARK    3  A    between atoms: N1_8  and  C8_9 
REMARK    4  A    between atoms: C10_11  and  N2_12 
REMARK    5  A    between atoms: N2_12  and  C11_13 
REMARK    6  A    between atoms: C11_13  and  C12_14 
ROOT
HETATM    1  C8  UNL     1      24.167   3.239  50.136  1.00  0.00     0.133 A 
HETATM    2  C9  UNL     1      24.554   3.029  51.461  1.00  0.00     0.100 A 
HETATM    3  C10 UNL     1      25.884   2.919  51.816  1.00  0.00     0.128 A 
HETATM    4  N3  UNL     1      26.839   3.015  50.874  1.00  0.00    -0.225 NA
HETATM    5  C18 UNL     1      26.463   3.214  49.608  1.00  0.00     0.237 A 
HETATM    6  N4  UNL     1      25.175   3.324  49.246  1.00  0.00    -0.224 NA
ENDROOT
BRANCH   1   7
HETATM    7  N1  UNL     1      22.773   3.357  49.804  1.00  0.00    -0.342 N 
HETATM    8  H8  UNL     1      22.283   4.291  49.695  1.00  0.00     0.167 HD
BRANCH   7   9
HETATM    9  C6  UNL     1      22.379   1.972  49.694  1.00  0.00     0.025 C 
HETATM   10  C7  UNL     1      21.922   1.604  48.514  1.00  0.00     0.043 C 
BRANCH   9  11
HETATM   11  C5  UNL     1      22.500   1.086  50.845  1.00  0.00     0.040 C 
HETATM   12  C4  UNL     1      21.703   0.502  51.716  1.00  0.00    -0.030 A 
HETATM   13  C3  UNL     1      22.220  -0.367  52.799  1.00  0.00     0.043 A 
HETATM   14  C19 UNL     1      20.265   0.712  51.614  1.00  0.00     0.036 A 
HETATM   15  C2  UNL     1      21.263  -0.861  53.567  1.00  0.00     0.049 A 
HETATM   16  C1  UNL     1      21.760  -1.744  54.670  1.00  0.00     0.076 C 
HETATM   17  O1  UNL     1      19.901  -0.643  53.447  1.00  0.00    -0.327 OA
HETATM   18  C20 UNL     1      19.404   0.169  52.435  1.00  0.00     0.143 A 
ENDBRANCH   9  11
ENDBRANCH   7   9
ENDBRANCH   1   7
BRANCH   3  19
HETATM   19  N2  UNL     1      26.246   2.696  53.177  1.00  0.00    -0.370 N 
HETATM   20  H10 UNL     1      26.846   3.399  53.660  1.00  0.00     0.161 HD
BRANCH  19  21
HETATM   21  C11 UNL     1      25.798   1.517  53.896  1.00  0.00     0.160 C 
BRANCH  21  22
HETATM   22  C12 UNL     1      26.772   0.400  53.642  1.00  0.00    -0.040 A 
HETATM   23  C13 UNL     1      28.108   0.460  53.995  1.00  0.00     0.012 A 
HETATM   24  C14 UNL     1      28.939  -0.606  53.737  1.00  0.00     0.043 A 
HETATM   25  C15 UNL     1      28.415  -1.741  53.118  1.00  0.00     0.116 A 
HETATM   26  F1  UNL     1      29.216  -2.790  52.860  1.00  0.00    -0.206 F 
HETATM   27  C16 UNL     1      27.075  -1.791  52.767  1.00  0.00     0.043 A 
HETATM   28  C17 UNL     1      26.234  -0.705  53.032  1.00  0.00     0.012 A 
ENDBRANCH  21  22
ENDBRANCH  19  21
ENDBRANCH   3  19
TORSDOF 6
ENDMDL
MODEL 5
REMARK VINA RESULT:      -7.7      3.772      7.439
REMARK  6 active torsions:
REMARK  status: ('A' for Active; 'I' for Inactive)
REMARK    1  A    between atoms: C5_5  and  C6_6 
REMARK    2  A    between atoms: C6_6  and  N1_8 
REMARK    3  A    between atoms: N1_8  and  C8_9 
REMARK    4  A    between atoms: C10_11  and  N2_12 
REMARK    5  A    between atoms: N2_12  and  C11_13 
REMARK    6  A    between atoms: C11_13  and  C12_14 
ROOT
HETATM    1  C8  UNL     1      27.050   0.065  53.347  1.00  0.00     0.133 A 
HETATM    2  C9  UNL     1      26.700   1.001  52.372  1.00  0.00     0.100 A 
HETATM    3  C10 UNL     1      27.410   2.173  52.208  1.00  0.00     0.128 A 
HETATM    4  N3  UNL     1      28.467   2.432  52.999  1.00  0.00    -0.225 NA
HETATM    5  C18 UNL     1      28.797   1.534  53.931  1.00  0.00     0.237 A 
HETATM    6  N4  UNL     1      28.117   0.389  54.103  1.00  0.00    -0.224 NA
ENDROOT
BRANCH   1   7
HETATM    7  N1  UNL     1      26.291  -1.149  53.483  1.00  0.00    -0.342 N 
HETATM    8  H8  UNL     1      26.617  -2.079  53.092  1.00  0.00     0.167 HD
BRANCH   7   9
HETATM    9  C6  UNL     1      25.139  -0.694  54.225  1.00  0.00     0.025 C 
HETATM   10  C7  UNL     1      25.223  -0.814  55.534  1.00  0.00     0.043 C 
BRANCH   9  11
HETATM   11  C5  UNL     1      23.987  -0.148  53.518  1.00  0.00     0.040 C 
HETATM   12  C4  UNL     1      22.686  -0.349  53.469  1.00  0.00    -0.030 A 
HETATM   13  C3  UNL     1      21.799   0.441  52.583  1.00  0.00     0.043 A 
HETATM   14  C19 UNL     1      22.096  -1.380  54.311  1.00  0.00     0.036 A 
HETATM   15  C2  UNL     1      20.528   0.090  52.679  1.00  0.00     0.049 A 
HETATM   16  C1  UNL     1      19.609   0.875  51.793  1.00  0.00     0.076 C 
HETATM   17  O1  UNL     1      19.993  -0.897  53.489  1.00  0.00    -0.327 OA
HETATM   18  C20 UNL     1      20.814  -1.644  54.324  1.00  0.00     0.143 A 
ENDBRANCH   9  11
ENDBRANCH   7   9
ENDBRANCH   1   7
BRANCH   3  19
HETATM   19  N2  UNL     1      27.022   3.112  51.208  1.00  0.00    -0.370 N 
HETATM   20  H10 UNL     1      27.698   3.854  50.924  1.00  0.00     0.161 HD
BRANCH  19  21
HETATM   21  C11 UNL     1      25.712   3.055  50.584  1.00  0.00     0.160 C 
BRANCH  21  22
HETATM   22  C12 UNL     1      25.529   4.286  49.738  1.00  0.00    -0.040 A 
HETATM   23  C13 UNL     1      24.289   4.805  49.410  1.00  0.00     0.012 A 
HETATM   24  C14 UNL     1      24.200   5.941  48.636  1.00  0.00     0.043 A 
HETATM   25  C15 UNL     1      25.372   6.554  48.194  1.00  0.00     0.116 A 
HETATM   26  F1  UNL     1      25.299   7.665  47.439  1.00  0.00    -0.206 F 
HETATM   27  C16 UNL     1      26.609   6.025  48.528  1.00  0.00     0.043 A 
HETATM   28  C17 UNL     1      26.695   4.871  49.314  1.00  0.00     0.012 A 
ENDBRANCH  21  22
ENDBRANCH  19  21
ENDBRANCH   3  19
TORSDOF 6
ENDMDL
MODEL 6
REMARK VINA RESULT:      -7.6      3.384      5.547
REMARK  6 active torsions:
REMARK  status: ('A' for Active; 'I' for Inactive)
REMARK    1  A    between atoms: C5_5  and  C6_6 
REMARK    2  A    between atoms: C6_6  and  N1_8 
REMARK    3  A    between atoms: N1_8  and  C8_9 
REMARK    4  A    between atoms: C10_11  and  N2_12 
REMARK    5  A    between atoms: N2_12  and  C11_13 
REMARK    6  A    between atoms: C11_13  and  C12_14 
ROOT
HETATM    1  C8  UNL     1      25.398  -0.509  53.640  1.00  0.00     0.133 A 
HETATM    2  C9  UNL     1      24.102  -0.430  53.124  1.00  0.00     0.100 A 
HETATM    3  C10 UNL     1      23.000  -0.748  53.892  1.00  0.00     0.128 A 
HETATM    4  N3  UNL     1      23.161  -1.143  55.167  1.00  0.00    -0.225 NA
HETATM    5  C18 UNL     1      24.403  -1.218  55.655  1.00  0.00     0.237 A 
HETATM    6  N4  UNL     1      25.486  -0.912  54.922  1.00  0.00    -0.224 NA
ENDROOT
BRANCH   1   7
HETATM    7  N1  UNL     1      26.522  -0.162  52.813  1.00  0.00    -0.342 N 
HETATM    8  H8  UNL     1      27.194  -0.884  52.422  1.00  0.00     0.167 HD
BRANCH   7   9
HETATM    9  C6  UNL     1      26.399   1.274  52.735  1.00  0.00     0.025 C 
HETATM   10  C7  UNL     1      26.900   1.943  53.754  1.00  0.00     0.043 C 
BRANCH   9  11
HETATM   11  C5  UNL     1      25.753   1.888  51.582  1.00  0.00     0.040 C 
HETATM   12  C4  UNL     1      24.729   2.682  51.345  1.00  0.00    -0.030 A 
HETATM   13  C3  UNL     1      24.362   3.107  49.973  1.00  0.00     0.043 A 
HETATM   14  C19 UNL     1      23.930   3.162  52.463  1.00  0.00     0.036 A 
HETATM   15  C2  UNL     1      23.307   3.904  49.944  1.00  0.00     0.049 A 
HETATM   16  C1  UNL     1      22.916   4.349  48.568  1.00  0.00     0.076 C 
HETATM   17  O1  UNL     1      22.565   4.345  51.026  1.00  0.00    -0.327 OA
HETATM   18  C20 UNL     1      22.898   3.954  52.316  1.00  0.00     0.143 A 
ENDBRANCH   9  11
ENDBRANCH   7   9
ENDBRANCH   1   7
BRANCH   3  19
HETATM   19  N2  UNL     1      21.691  -0.665  53.332  1.00  0.00    -0.370 N 
HETATM   20  H10 UNL     1      21.249  -1.531  52.954  1.00  0.00     0.161 HD
BRANCH  19  21
HETATM   21  C11 UNL     1      20.968   0.593  53.280  1.00  0.00     0.160 C 
BRANCH  21  22
HETATM   22  C12 UNL     1      20.797   0.990  51.839  1.00  0.00    -0.040 A 
HETATM   23  C13 UNL     1      21.512   0.417  50.802  1.00  0.00     0.012 A 
HETATM   24  C14 UNL     1      21.297   0.828  49.506  1.00  0.00     0.043 A 
HETATM   25  C15 UNL     1      20.353   1.824  49.258  1.00  0.00     0.116 A 
HETATM   26  F1  UNL     1      20.132   2.234  47.997  1.00  0.00    -0.206 F 
HETATM   27  C16 UNL     1      19.642   2.393  50.305  1.00  0.00     0.043 A 
HETATM   28  C17 UNL     1      19.864   1.971  51.620  1.00  0.00     0.012 A 
ENDBRANCH  21  22
ENDBRANCH  19  21
ENDBRANCH   3  19
TORSDOF 6
ENDMDL
MODEL 7
REMARK VINA RESULT:      -7.5      1.340      1.985
REMARK  6 active torsions:
REMARK  status: ('A' for Active; 'I' for Inactive)
REMARK    1  A    between atoms: C5_5  and  C6_6 
REMARK    2  A    between atoms: C6_6  and  N1_8 
REMARK    3  A    between atoms: N1_8  and  C8_9 
REMARK    4  A    between atoms: C10_11  and  N2_12 
REMARK    5  A    between atoms: N2_12  and  C11_13 
REMARK    6  A    between atoms: C11_13  and  C12_14 
ROOT
HETATM    1  C8  UNL     1      23.551   3.672  50.393  1.00  0.00     0.133 A 
HETATM    2  C9  UNL     1      22.475   2.929  50.882  1.00  0.00     0.100 A 
HETATM    3  C10 UNL     1      21.507   3.502  51.682  1.00  0.00     0.128 A 
HETATM    4  N3  UNL     1      21.589   4.805  52.005  1.00  0.00    -0.225 NA
HETATM    5  C18 UNL     1      22.621   5.510  51.536  1.00  0.00     0.237 A 
HETATM    6  N4  UNL     1      23.571   4.968  50.756  1.00  0.00    -0.224 NA
ENDROOT
BRANCH   1   7
HETATM    7  N1  UNL     1      24.537   3.043  49.555  1.00  0.00    -0.342 N 
HETATM    8  H8  UNL     1      24.321   2.685  48.581  1.00  0.00     0.167 HD
BRANCH   7   9
HETATM    9  C6  UNL     1      25.709   3.087  50.396  1.00  0.00     0.025 C 
HETATM   10  C7  UNL     1      26.779   3.628  49.850  1.00  0.00     0.043 C 
BRANCH   9  11
HETATM   11  C5  UNL     1      25.654   2.553  51.752  1.00  0.00     0.040 C 
HETATM   12  C4  UNL     1      25.961   1.432  52.372  1.00  0.00    -0.030 A 
HETATM   13  C3  UNL     1      25.749   1.254  53.828  1.00  0.00     0.043 A 
HETATM   14  C19 UNL     1      26.528   0.330  51.608  1.00  0.00     0.036 A 
HETATM   15  C2  UNL     1      26.120   0.061  54.263  1.00  0.00     0.049 A 
HETATM   16  C1  UNL     1      25.917  -0.144  55.732  1.00  0.00     0.076 C 
HETATM   17  O1  UNL     1      26.657  -0.970  53.511  1.00  0.00    -0.327 OA
HETATM   18  C20 UNL     1      26.861  -0.815  52.146  1.00  0.00     0.143 A 
ENDBRANCH   9  11
ENDBRANCH   7   9
ENDBRANCH   1   7
BRANCH   3  19
HETATM   19  N2  UNL     1      20.424   2.713  52.173  1.00  0.00    -0.370 N 
HETATM   20  H10 UNL     1      19.714   3.162  52.791  1.00  0.00     0.161 HD
BRANCH  19  21
HETATM   21  C11 UNL     1      20.295   1.309  51.830  1.00  0.00     0.160 C 
BRANCH  21  22
HETATM   22  C12 UNL     1      21.007   0.492  52.874  1.00  0.00    -0.040 A 
HETATM   23  C13 UNL     1      20.631   0.463  54.205  1.00  0.00     0.012 A 
HETATM   24  C14 UNL     1      21.327  -0.315  55.103  1.00  0.00     0.043 A 
HETATM   25  C15 UNL     1      22.410  -1.068  54.650  1.00  0.00     0.116 A 
HETATM   26  F1  UNL     1      23.098  -1.834  55.516  1.00  0.00    -0.206 F 
HETATM   27  C16 UNL     1      22.779  -1.032  53.314  1.00  0.00     0.043 A 
HETATM   28  C17 UNL     1      22.068  -0.241  52.406  1.00  0.00     0.012 A 
ENDBRANCH  21  22
ENDBRANCH  19  21
ENDBRANCH   3  19
TORSDOF 6
ENDMDL
MODEL 8
REMARK VINA RESULT:      -7.5      3.107      5.430
REMARK  6 active torsions:
REMARK  status: ('A' for Active; 'I' for Inactive)
REMARK    1  A    between atoms: C5_5  and  C6_6 
REMARK    2  A    between atoms: C6_6  and  N1_8 
REMARK    3  A    between atoms: N1_8  and  C8_9 
REMARK    4  A    between atoms: C10_11  and  N2_12 
REMARK    5  A    between atoms: N2_12  and  C11_13 
REMARK    6  A    between atoms: C11_13  and  C12_14 
ROOT
HETATM    1  C8  UNL     1      23.810   3.748  51.320  1.00  0.00     0.133 A 
HETATM    2  C9  UNL     1      24.437   2.961  52.288  1.00  0.00     0.100 A 
HETATM    3  C10 UNL     1      24.145   1.619  52.426  1.00  0.00     0.128 A 
HETATM    4  N3  UNL     1      23.240   1.043  51.615  1.00  0.00    -0.225 NA
HETATM    5  C18 UNL     1      22.642   1.801  50.693  1.00  0.00     0.237 A 
HETATM    6  N4  UNL     1      22.914   3.108  50.545  1.00  0.00    -0.224 NA
ENDROOT
BRANCH   1   7
HETATM    7  N1  UNL     1      24.144   5.142  51.201  1.00  0.00    -0.342 N 
HETATM    8  H8  UNL     1      24.125   5.812  52.023  1.00  0.00     0.167 HD
BRANCH   7   9
HETATM    9  C6  UNL     1      24.462   5.250  49.797  1.00  0.00     0.025 C 
HETATM   10  C7  UNL     1      23.464   5.606  49.015  1.00  0.00     0.043 C 
BRANCH   9  11
HETATM   11  C5  UNL     1      25.816   4.970  49.333  1.00  0.00     0.040 C 
HETATM   12  C4  UNL     1      26.876   5.650  48.948  1.00  0.00    -0.030 A 
HETATM   13  C3  UNL     1      28.130   4.984  48.525  1.00  0.00     0.043 A 
HETATM   14  C19 UNL     1      26.818   7.106  48.937  1.00  0.00     0.036 A 
HETATM   15  C2  UNL     1      29.077   5.838  48.177  1.00  0.00     0.049 A 
HETATM   16  C1  UNL     1      30.356   5.188  47.746  1.00  0.00     0.076 C 
HETATM   17  O1  UNL     1      28.995   7.220  48.175  1.00  0.00    -0.327 OA
HETATM   18  C20 UNL     1      27.825   7.857  48.569  1.00  0.00     0.143 A 
ENDBRANCH   9  11
ENDBRANCH   7   9
ENDBRANCH   1   7
BRANCH   3  19
HETATM   19  N2  UNL     1      24.797   0.844  53.430  1.00  0.00    -0.370 N 
HETATM   20  H10 UNL     1      25.052   1.300  54.333  1.00  0.00     0.161 HD
BRANCH  19  21
HETATM   21  C11 UNL     1      25.112  -0.558  53.219  1.00  0.00     0.160 C 
BRANCH  21  22
HETATM   22  C12 UNL     1      26.597  -0.745  53.366  1.00  0.00    -0.040 A 
HETATM   23  C13 UNL     1      27.289  -1.809  52.816  1.00  0.00     0.012 A 
HETATM   24  C14 UNL     1      28.651  -1.910  52.988  1.00  0.00     0.043 A 
HETATM   25  C15 UNL     1      29.317  -0.927  53.719  1.00  0.00     0.116 A 
HETATM   26  F1  UNL     1      30.648  -1.013  53.893  1.00  0.00    -0.206 F 
HETATM   27  C16 UNL     1      28.615   0.136  54.267  1.00  0.00     0.043 A 
HETATM   28  C17 UNL     1      27.231   0.234  54.090  1.00  0.00     0.012 A 
ENDBRANCH  21  22
ENDBRANCH  19  21
ENDBRANCH   3  19
TORSDOF 6
ENDMDL
MODEL 9
REMARK VINA RESULT:      -7.5      3.557      7.290
REMARK  6 active torsions:
REMARK  status: ('A' for Active; 'I' for Inactive)
REMARK    1  A    between atoms: C5_5  and  C6_6 
REMARK    2  A    between atoms: C6_6  and  N1_8 
REMARK    3  A    between atoms: N1_8  and  C8_9 
REMARK    4  A    between atoms: C10_11  and  N2_12 
REMARK    5  A    between atoms: N2_12  and  C11_13 
REMARK    6  A    between atoms: C11_13  and  C12_14 
ROOT
HETATM    1  C8  UNL     1      24.385  -0.390  53.644  1.00  0.00     0.133 A 
HETATM    2  C9  UNL     1      24.882   0.687  52.908  1.00  0.00     0.100 A 
HETATM    3  C10 UNL     1      25.982   1.405  53.332  1.00  0.00     0.128 A 
HETATM    4  N3  UNL     1      26.601   1.068  54.477  1.00  0.00    -0.225 NA
HETATM    5  C18 UNL     1      26.121   0.038  55.178  1.00  0.00     0.237 A 
HETATM    6  N4  UNL     1      25.052  -0.671  54.780  1.00  0.00    -0.224 NA
ENDROOT
BRANCH   1   7
HETATM    7  N1  UNL     1      23.240  -1.119  53.168  1.00  0.00    -0.342 N 
HETATM    8  H8  UNL     1      23.318  -1.950  52.514  1.00  0.00     0.167 HD
BRANCH   7   9
HETATM    9  C6  UNL     1      22.155  -0.417  53.812  1.00  0.00     0.025 C 
HETATM   10  C7  UNL     1      21.610  -1.035  54.840  1.00  0.00     0.043 C 
BRANCH   9  11
HETATM   11  C5  UNL     1      21.734   0.886  53.313  1.00  0.00     0.040 C 
HETATM   12  C4  UNL     1      21.372   1.422  52.165  1.00  0.00    -0.030 A 
HETATM   13  C3  UNL     1      20.999   2.851  52.045  1.00  0.00     0.043 A 
HETATM   14  C19 UNL     1      21.336   0.587  50.973  1.00  0.00     0.036 A 
HETATM   15  C2  UNL     1      20.665   3.197  50.813  1.00  0.00     0.049 A 
HETATM   16  C1  UNL     1      20.282   4.637  50.665  1.00  0.00     0.076 C 
HETATM   17  O1  UNL     1      20.639   2.380  49.696  1.00  0.00    -0.327 OA
HETATM   18  C20 UNL     1      20.987   1.038  49.795  1.00  0.00     0.143 A 
ENDBRANCH   9  11
ENDBRANCH   7   9
ENDBRANCH   1   7
BRANCH   3  19
HETATM   19  N2  UNL     1      26.460   2.505  52.561  1.00  0.00    -0.370 N 
HETATM   20  H10 UNL     1      26.585   3.430  53.027  1.00  0.00     0.161 HD
BRANCH  19  21
HETATM   21  C11 UNL     1      26.771   2.363  51.150  1.00  0.00     0.160 C 
BRANCH  21  22
HETATM   22  C12 UNL     1      25.956   3.363  50.375  1.00  0.00    -0.040 A 
HETATM   23  C13 UNL     1      24.573   3.391  50.389  1.00  0.00     0.012 A 
HETATM   24  C14 UNL     1      23.895   4.341  49.658  1.00  0.00     0.043 A 
HETATM   25  C15 UNL     1      24.621   5.267  48.910  1.00  0.00     0.116 A 
HETATM   26  F1  UNL     1      23.972   6.201  48.193  1.00  0.00    -0.206 F 
HETATM   27  C16 UNL     1      26.007   5.229  48.902  1.00  0.00     0.043 A 
HETATM   28  C17 UNL     1      26.692   4.262  49.646  1.00  0.00     0.012 A 
ENDBRANCH  21  22
ENDBRANCH  19  21
ENDBRANCH   3  19
TORSDOF 6
ENDMDL
