MODEL 1
REMARK VINA RESULT:      -8.3      0.000      0.000
REMARK  8 active torsions:
REMARK  status: ('A' for Active; 'I' for Inactive)
REMARK    1  A    between atoms: O1_2  and  C2_3 
REMARK    2  A    between atoms: C6_9  and  N3_10 
REMARK    3  A    between atoms: N3_10  and  C7_11 
REMARK    4  A    between atoms: C15_21  and  C16_22 
REMARK    5  A    between atoms: C16_22  and  N4_23 
REMARK    6  A    between atoms: N4_23  and  C18_25 
REMARK    7  A    between atoms: C18_25  and  C19_26 
REMARK    8  A    between atoms: C19_26  and  C20_27 
REMARK       I    between atoms: C20_27  and  N5_28 
ROOT
HETATM    1  C2  UNL     1      21.829   3.181  50.224  1.00  0.00     0.078 A 
HETATM    2  C3  UNL     1      22.910   3.436  49.397  1.00  0.00     0.070 A 
HETATM    3  C4  UNL     1      24.229   3.353  49.843  1.00  0.00     0.074 A 
HETATM    4  N1  UNL     1      25.274   3.590  49.066  1.00  0.00    -0.241 NA
HETATM    5  C5  UNL     1      26.522   3.489  49.563  1.00  0.00     0.236 A 
HETATM    6  N2  UNL     1      26.682   3.145  50.862  1.00  0.00    -0.224 NA
HETATM    7  C6  UNL     1      25.633   2.900  51.666  1.00  0.00     0.142 A 
HETATM    8  C13 UNL     1      24.350   2.997  51.182  1.00  0.00     0.039 A 
HETATM    9  C14 UNL     1      23.318   2.730  52.061  1.00  0.00     0.029 A 
HETATM   10  C15 UNL     1      22.028   2.826  51.560  1.00  0.00    -0.006 A 
ENDROOT
BRANCH   7  11
HETATM   11  N3  UNL     1      26.033   2.551  52.982  1.00  0.00    -0.340 N 
HETATM   12  H6  UNL     1      25.718   2.969  53.886  1.00  0.00     0.167 HD
BRANCH  11  13
HETATM   13  C7  UNL     1      26.994   1.492  53.104  1.00  0.00     0.035 A 
HETATM   14  C8  UNL     1      28.295   1.695  53.554  1.00  0.00     0.032 A 
HETATM   15  C9  UNL     1      29.228   0.692  53.689  1.00  0.00     0.046 A 
HETATM   16  C10 UNL     1      28.859  -0.605  53.360  1.00  0.00     0.138 A 
HETATM   17  F1  UNL     1      29.801  -1.568  53.509  1.00  0.00    -0.204 F 
HETATM   18  C11 UNL     1      27.569  -0.870  52.904  1.00  0.00     0.074 A 
HETATM   19 CL1  UNL     1      27.154  -2.524  52.502  1.00  0.00    -0.081 Cl
HETATM   20  C12 UNL     1      26.695   0.174  52.794  1.00  0.00     0.056 A 
ENDBRANCH  11  13
ENDBRANCH   7  11
BRANCH  10  21
HETATM   21  C16 UNL     1      20.956   2.507  52.534  1.00  0.00     0.158 C 
BRANCH  21  22
HETATM   22  N4  UNL     1      20.750   1.134  52.636  1.00  0.00    -0.412 N 
HETATM   23  C17 UNL     1      20.027   0.398  51.702  1.00  0.00     0.143 C 
BRANCH  22  24
HETATM   24  C18 UNL     1      21.042   0.506  53.883  1.00  0.00     0.125 C 
BRANCH  24  25
HETATM   25  C19 UNL     1      22.395  -0.157  53.946  1.00  0.00     0.115 C 
BRANCH  25  26
HETATM   26  C20 UNL     1      22.249  -1.295  54.895  1.00  0.00     0.196 C 
HETATM   27  N5  UNL     1      23.106  -1.798  55.881  1.00  0.00    -0.273 NA
HETATM   28  H20 UNL     1      23.166  -1.402  56.853  1.00  0.00     0.127 HD
HETATM   29  H21 UNL     1      22.988  -1.237  56.773  1.00  0.00     0.127 HD
HETATM   30  O2  UNL     1      21.275  -2.092  55.025  1.00  0.00    -0.280 OA
ENDBRANCH  25  26
ENDBRANCH  24  25
ENDBRANCH  22  24
ENDBRANCH  21  22
ENDBRANCH  10  21
BRANCH   1  31
HETATM   31  O1  UNL     1      20.558   3.278  49.743  1.00  0.00    -0.355 OA
HETATM   32  C1  UNL     1      19.829   4.461  49.656  1.00  0.00     0.210 C 
ENDBRANCH   1  31
TORSDOF 8
ENDMDL
MODEL 2
REMARK VINA RESULT:      -8.3      2.207      4.834
REMARK  8 active torsions:
REMARK  status: ('A' for Active; 'I' for Inactive)
REMARK    1  A    between atoms: O1_2  and  C2_3 
REMARK    2  A    between atoms: C6_9  and  N3_10 
REMARK    3  A    between atoms: N3_10  and  C7_11 
REMARK    4  A    between atoms: C15_21  and  C16_22 
REMARK    5  A    between atoms: C16_22  and  N4_23 
REMARK    6  A    between atoms: N4_23  and  C18_25 
REMARK    7  A    between atoms: C18_25  and  C19_26 
REMARK    8  A    between atoms: C19_26  and  C20_27 
REMARK       I    between atoms: C20_27  and  N5_28 
ROOT
HETATM    1  C2  UNL     1      19.863  -0.425  53.023  1.00  0.00     0.078 A 
HETATM    2  C3  UNL     1      20.443  -1.043  54.118  1.00  0.00     0.070 A 
HETATM    3  C4  UNL     1      21.816  -1.001  54.359  1.00  0.00     0.074 A 
HETATM    4  N1  UNL     1      22.388  -1.584  55.402  1.00  0.00    -0.241 NA
HETATM    5  C5  UNL     1      23.721  -1.501  55.576  1.00  0.00     0.236 A 
HETATM    6  N2  UNL     1      24.456  -0.817  54.668  1.00  0.00    -0.224 NA
HETATM    7  C6  UNL     1      23.894  -0.219  53.603  1.00  0.00     0.142 A 
HETATM    8  C13 UNL     1      22.536  -0.291  53.405  1.00  0.00     0.039 A 
HETATM    9  C14 UNL     1      22.022   0.348  52.292  1.00  0.00     0.029 A 
HETATM   10  C15 UNL     1      20.650   0.275  52.105  1.00  0.00    -0.006 A 
ENDROOT
BRANCH   7  11
HETATM   11  N3  UNL     1      24.850   0.442  52.791  1.00  0.00    -0.340 N 
HETATM   12  H6  UNL     1      24.681   1.125  52.019  1.00  0.00     0.167 HD
BRANCH  11  13
HETATM   13  C7  UNL     1      26.231   0.146  53.048  1.00  0.00     0.035 A 
HETATM   14  C8  UNL     1      26.814  -1.081  52.744  1.00  0.00     0.032 A 
HETATM   15  C9  UNL     1      28.138  -1.380  52.972  1.00  0.00     0.046 A 
HETATM   16  C10 UNL     1      28.950  -0.407  53.539  1.00  0.00     0.138 A 
HETATM   17  F1  UNL     1      30.248  -0.735  53.746  1.00  0.00    -0.204 F 
HETATM   18  C11 UNL     1      28.422   0.841  53.865  1.00  0.00     0.074 A 
HETATM   19 CL1  UNL     1      29.489   2.033  54.577  1.00  0.00    -0.081 Cl
HETATM   20  C12 UNL     1      27.099   1.070  53.610  1.00  0.00     0.056 A 
ENDBRANCH  11  13
ENDBRANCH   7  11
BRANCH  10  21
HETATM   21  C16 UNL     1      20.144   0.995  50.912  1.00  0.00     0.158 C 
BRANCH  21  22
HETATM   22  N4  UNL     1      20.098   2.370  51.126  1.00  0.00    -0.412 N 
HETATM   23  C17 UNL     1      18.976   3.029  51.618  1.00  0.00     0.143 C 
BRANCH  22  24
HETATM   24  C18 UNL     1      21.132   3.169  50.554  1.00  0.00     0.125 C 
BRANCH  24  25
HETATM   25  C19 UNL     1      21.833   4.077  51.535  1.00  0.00     0.115 C 
BRANCH  25  26
HETATM   26  C20 UNL     1      23.190   3.497  51.731  1.00  0.00     0.196 C 
HETATM   27  N5  UNL     1      24.089   2.912  50.831  1.00  0.00    -0.273 NA
HETATM   28  H20 UNL     1      24.753   3.467  50.233  1.00  0.00     0.127 HD
HETATM   29  H21 UNL     1      24.648   3.671  50.346  1.00  0.00     0.127 HD
HETATM   30  O2  UNL     1      23.859   3.402  52.801  1.00  0.00    -0.280 OA
ENDBRANCH  25  26
ENDBRANCH  24  25
ENDBRANCH  22  24
ENDBRANCH  21  22
ENDBRANCH  10  21
BRANCH   1  31
HETATM   31  O1  UNL     1      18.517  -0.496  52.828  1.00  0.00    -0.355 OA
HETATM   32  C1  UNL     1      17.708  -1.554  53.237  1.00  0.00     0.210 C 
ENDBRANCH   1  31
TORSDOF 8
ENDMDL
MODEL 3
REMARK VINA RESULT:      -8.2      3.939      6.478
REMARK  8 active torsions:
REMARK  status: ('A' for Active; 'I' for Inactive)
REMARK    1  A    between atoms: O1_2  and  C2_3 
REMARK    2  A    between atoms: C6_9  and  N3_10 
REMARK    3  A    between atoms: N3_10  and  C7_11 
REMARK    4  A    between atoms: C15_21  and  C16_22 
REMARK    5  A    between atoms: C16_22  and  N4_23 
REMARK    6  A    between atoms: N4_23  and  C18_25 
REMARK    7  A    between atoms: C18_25  and  C19_26 
REMARK    8  A    between atoms: C19_26  and  C20_27 
REMARK       I    between atoms: C20_27  and  N5_28 
ROOT
HETATM    1  C2  UNL     1      23.558   0.017  53.194  1.00  0.00     0.078 A 
HETATM    2  C3  UNL     1      22.628   0.550  52.317  1.00  0.00     0.070 A 
HETATM    3  C4  UNL     1      22.981   1.442  51.305  1.00  0.00     0.074 A 
HETATM    4  N1  UNL     1      22.105   1.959  50.456  1.00  0.00    -0.241 NA
HETATM    5  C5  UNL     1      22.516   2.814  49.500  1.00  0.00     0.236 A 
HETATM    6  N2  UNL     1      23.830   3.131  49.427  1.00  0.00    -0.224 NA
HETATM    7  C6  UNL     1      24.733   2.616  50.279  1.00  0.00     0.142 A 
HETATM    8  C13 UNL     1      24.337   1.742  51.264  1.00  0.00     0.039 A 
HETATM    9  C14 UNL     1      25.317   1.248  52.105  1.00  0.00     0.029 A 
HETATM   10  C15 UNL     1      24.908   0.362  53.091  1.00  0.00    -0.006 A 
ENDROOT
BRANCH   7  11
HETATM   11  N3  UNL     1      26.047   3.080  50.016  1.00  0.00    -0.340 N 
HETATM   12  H6  UNL     1      26.937   2.533  50.012  1.00  0.00     0.167 HD
BRANCH  11  13
HETATM   13  C7  UNL     1      26.190   4.476  49.717  1.00  0.00     0.035 A 
HETATM   14  C8  UNL     1      25.402   5.463  50.300  1.00  0.00     0.032 A 
HETATM   15  C9  UNL     1      25.531   6.808  50.035  1.00  0.00     0.046 A 
HETATM   16  C10 UNL     1      26.503   7.215  49.132  1.00  0.00     0.138 A 
HETATM   17  F1  UNL     1      26.605   8.546  48.898  1.00  0.00    -0.204 F 
HETATM   18  C11 UNL     1      27.323   6.272  48.515  1.00  0.00     0.074 A 
HETATM   19 CL1  UNL     1      28.535   6.839  47.384  1.00  0.00    -0.081 Cl
HETATM   20  C12 UNL     1      27.140   4.954  48.826  1.00  0.00     0.056 A 
ENDBRANCH  11  13
ENDBRANCH   7  11
BRANCH  10  21
HETATM   21  C16 UNL     1      25.996  -0.158  53.952  1.00  0.00     0.158 C 
BRANCH  21  22
HETATM   22  N4  UNL     1      26.969  -0.816  53.205  1.00  0.00    -0.412 N 
HETATM   23  C17 UNL     1      26.719  -1.975  52.476  1.00  0.00     0.143 C 
BRANCH  22  24
HETATM   24  C18 UNL     1      28.333  -0.457  53.420  1.00  0.00     0.125 C 
BRANCH  24  25
HETATM   25  C19 UNL     1      28.587   0.277  54.713  1.00  0.00     0.115 C 
BRANCH  25  26
HETATM   26  C20 UNL     1      29.086   1.625  54.326  1.00  0.00     0.196 C 
HETATM   27  N5  UNL     1      28.952   2.361  53.143  1.00  0.00    -0.273 NA
HETATM   28  H20 UNL     1      28.110   2.951  52.920  1.00  0.00     0.127 HD
HETATM   29  H21 UNL     1      28.023   2.872  53.147  1.00  0.00     0.127 HD
HETATM   30  O2  UNL     1      29.770   2.440  55.012  1.00  0.00    -0.280 OA
ENDBRANCH  25  26
ENDBRANCH  24  25
ENDBRANCH  22  24
ENDBRANCH  21  22
ENDBRANCH  10  21
BRANCH   1  31
HETATM   31  O1  UNL     1      23.165  -0.849  54.169  1.00  0.00    -0.355 OA
HETATM   32  C1  UNL     1      21.955  -0.780  54.854  1.00  0.00     0.210 C 
ENDBRANCH   1  31
TORSDOF 8
ENDMDL
MODEL 4
REMARK VINA RESULT:      -8.1      3.881      6.253
REMARK  8 active torsions:
REMARK  status: ('A' for Active; 'I' for Inactive)
REMARK    1  A    between atoms: O1_2  and  C2_3 
REMARK    2  A    between atoms: C6_9  and  N3_10 
REMARK    3  A    between atoms: N3_10  and  C7_11 
REMARK    4  A    between atoms: C15_21  and  C16_22 
REMARK    5  A    between atoms: C16_22  and  N4_23 
REMARK    6  A    between atoms: N4_23  and  C18_25 
REMARK    7  A    between atoms: C18_25  and  C19_26 
REMARK    8  A    between atoms: C19_26  and  C20_27 
REMARK       I    between atoms: C20_27  and  N5_28 
ROOT
HETATM    1  C2  UNL     1      23.239   1.100  52.981  1.00  0.00     0.078 A 
HETATM    2  C3  UNL     1      22.037   1.554  52.465  1.00  0.00     0.070 A 
HETATM    3  C4  UNL     1      21.842   2.881  52.081  1.00  0.00     0.074 A 
HETATM    4  N1  UNL     1      20.701   3.331  51.583  1.00  0.00    -0.241 NA
HETATM    5  C5  UNL     1      20.582   4.626  51.230  1.00  0.00     0.236 A 
HETATM    6  N2  UNL     1      21.644   5.448  51.396  1.00  0.00    -0.224 NA
HETATM    7  C6  UNL     1      22.811   5.009  51.900  1.00  0.00     0.142 A 
HETATM    8  C13 UNL     1      22.955   3.692  52.268  1.00  0.00     0.039 A 
HETATM    9  C14 UNL     1      24.181   3.306  52.776  1.00  0.00     0.029 A 
HETATM   10  C15 UNL     1      24.318   1.975  53.139  1.00  0.00    -0.006 A 
ENDROOT
BRANCH   7  11
HETATM   11  N3  UNL     1      23.784   6.038  51.980  1.00  0.00    -0.340 N 
HETATM   12  H6  UNL     1      24.064   6.599  52.815  1.00  0.00     0.167 HD
BRANCH  11  13
HETATM   13  C7  UNL     1      24.481   6.362  50.768  1.00  0.00     0.035 A 
HETATM   14  C8  UNL     1      24.193   7.488  50.003  1.00  0.00     0.032 A 
HETATM   15  C9  UNL     1      24.856   7.822  48.845  1.00  0.00     0.046 A 
HETATM   16  C10 UNL     1      25.878   6.991  48.403  1.00  0.00     0.138 A 
HETATM   17  F1  UNL     1      26.512   7.353  47.261  1.00  0.00    -0.204 F 
HETATM   18  C11 UNL     1      26.212   5.848  49.127  1.00  0.00     0.074 A 
HETATM   19 CL1  UNL     1      27.509   4.835  48.526  1.00  0.00    -0.081 Cl
HETATM   20  C12 UNL     1      25.511   5.578  50.268  1.00  0.00     0.056 A 
ENDBRANCH  11  13
ENDBRANCH   7  11
BRANCH  10  21
HETATM   21  C16 UNL     1      25.657   1.604  53.656  1.00  0.00     0.158 C 
BRANCH  21  22
HETATM   22  N4  UNL     1      26.534   1.287  52.623  1.00  0.00    -0.412 N 
HETATM   23  C17 UNL     1      27.037   2.230  51.731  1.00  0.00     0.143 C 
BRANCH  22  24
HETATM   24  C18 UNL     1      26.700  -0.090  52.286  1.00  0.00     0.125 C 
BRANCH  24  25
HETATM   25  C19 UNL     1      27.731  -0.814  53.116  1.00  0.00     0.115 C 
BRANCH  25  26
HETATM   26  C20 UNL     1      27.637  -2.247  52.724  1.00  0.00     0.196 C 
HETATM   27  N5  UNL     1      28.408  -3.360  53.079  1.00  0.00    -0.273 NA
HETATM   28  H20 UNL     1      28.254  -3.914  53.960  1.00  0.00     0.127 HD
HETATM   29  H21 UNL     1      28.065  -3.748  54.005  1.00  0.00     0.127 HD
HETATM   30  O2  UNL     1      26.802  -2.799  51.949  1.00  0.00    -0.280 OA
ENDBRANCH  25  26
ENDBRANCH  24  25
ENDBRANCH  22  24
ENDBRANCH  21  22
ENDBRANCH  10  21
BRANCH   1  31
HETATM   31  O1  UNL     1      23.381  -0.205  53.345  1.00  0.00    -0.355 OA
HETATM   32  C1  UNL     1      22.363  -1.154  53.316  1.00  0.00     0.210 C 
ENDBRANCH   1  31
TORSDOF 8
ENDMDL
MODEL 5
REMARK VINA RESULT:      -8.0      2.146      4.962
REMARK  8 active torsions:
REMARK  status: ('A' for Active; 'I' for Inactive)
REMARK    1  A    between atoms: O1_2  and  C2_3 
REMARK    2  A    between atoms: C6_9  and  N3_10 
REMARK    3  A    between atoms: N3_10  and  C7_11 
REMARK    4  A    between atoms: C15_21  and  C16_22 
REMARK    5  A    between atoms: C16_22  and  N4_23 
REMARK    6  A    between atoms: N4_23  and  C18_25 
REMARK    7  A    between atoms: C18_25  and  C19_26 
REMARK    8  A    between atoms: C19_26  and  C20_27 
REMARK       I    between atoms: C20_27  and  N5_28 
ROOT
HETATM    1  C2  UNL     1      20.870   2.111  52.360  1.00  0.00     0.078 A 
HETATM    2  C3  UNL     1      20.767   1.308  53.483  1.00  0.00     0.070 A 
HETATM    3  C4  UNL     1      21.762   0.401  53.848  1.00  0.00     0.074 A 
HETATM    4  N1  UNL     1      21.680  -0.373  54.919  1.00  0.00    -0.241 NA
HETATM    5  C5  UNL     1      22.681  -1.225  55.214  1.00  0.00     0.236 A 
HETATM    6  N2  UNL     1      23.759  -1.274  54.398  1.00  0.00    -0.224 NA
HETATM    7  C6  UNL     1      23.860  -0.496  53.306  1.00  0.00     0.142 A 
HETATM    8  C13 UNL     1      22.851   0.381  52.985  1.00  0.00     0.039 A 
HETATM    9  C14 UNL     1      23.019   1.153  51.850  1.00  0.00     0.029 A 
HETATM   10  C15 UNL     1      21.998   2.038  51.538  1.00  0.00    -0.006 A 
ENDROOT
BRANCH   7  11
HETATM   11  N3  UNL     1      25.073  -0.709  52.604  1.00  0.00    -0.340 N 
HETATM   12  H6  UNL     1      25.230  -1.276  51.741  1.00  0.00     0.167 HD
BRANCH  11  13
HETATM   13  C7  UNL     1      26.246  -0.071  53.133  1.00  0.00     0.035 A 
HETATM   14  C8  UNL     1      26.245   1.228  53.630  1.00  0.00     0.032 A 
HETATM   15  C9  UNL     1      27.354   1.853  54.152  1.00  0.00     0.046 A 
HETATM   16  C10 UNL     1      28.553   1.153  54.190  1.00  0.00     0.138 A 
HETATM   17  F1  UNL     1      29.624   1.797  54.714  1.00  0.00    -0.204 F 
HETATM   18  C11 UNL     1      28.616  -0.153  53.707  1.00  0.00     0.074 A 
HETATM   19 CL1  UNL     1      30.152  -0.991  53.778  1.00  0.00    -0.081 Cl
HETATM   20  C12 UNL     1      27.474  -0.710  53.202  1.00  0.00     0.056 A 
ENDBRANCH  11  13
ENDBRANCH   7  11
BRANCH  10  21
HETATM   21  C16 UNL     1      22.235   2.860  50.327  1.00  0.00     0.158 C 
BRANCH  21  22
HETATM   22  N4  UNL     1      22.788   4.096  50.649  1.00  0.00    -0.412 N 
HETATM   23  C17 UNL     1      22.054   5.279  50.674  1.00  0.00     0.143 C 
BRANCH  22  24
HETATM   24  C18 UNL     1      24.210   4.205  50.672  1.00  0.00     0.125 C 
BRANCH  24  25
HETATM   25  C19 UNL     1      24.899   3.638  49.455  1.00  0.00     0.115 C 
BRANCH  25  26
HETATM   26  C20 UNL     1      26.357   3.692  49.749  1.00  0.00     0.196 C 
HETATM   27  N5  UNL     1      27.086   3.367  50.899  1.00  0.00    -0.273 NA
HETATM   28  H20 UNL     1      27.392   2.389  51.134  1.00  0.00     0.127 HD
HETATM   29  H21 UNL     1      27.275   2.324  50.916  1.00  0.00     0.127 HD
HETATM   30  O2  UNL     1      27.301   4.059  48.989  1.00  0.00    -0.280 OA
ENDBRANCH  25  26
ENDBRANCH  24  25
ENDBRANCH  22  24
ENDBRANCH  21  22
ENDBRANCH  10  21
BRANCH   1  31
HETATM   31  O1  UNL     1      19.870   2.980  52.042  1.00  0.00    -0.355 OA
HETATM   32  C1  UNL     1      18.625   2.610  51.541  1.00  0.00     0.210 C 
ENDBRANCH   1  31
TORSDOF 8
ENDMDL
MODEL 6
REMARK VINA RESULT:      -8.0      3.587      5.961
REMARK  8 active torsions:
REMARK  status: ('A' for Active; 'I' for Inactive)
REMARK    1  A    between atoms: O1_2  and  C2_3 
REMARK    2  A    between atoms: C6_9  and  N3_10 
REMARK    3  A    between atoms: N3_10  and  C7_11 
REMARK    4  A    between atoms: C15_21  and  C16_22 
REMARK    5  A    between atoms: C16_22  and  N4_23 
REMARK    6  A    between atoms: N4_23  and  C18_25 
REMARK    7  A    between atoms: C18_25  and  C19_26 
REMARK    8  A    between atoms: C19_26  and  C20_27 
REMARK       I    between atoms: C20_27  and  N5_28 
ROOT
HETATM    1  C2  UNL     1      22.296  -0.093  52.698  1.00  0.00     0.078 A 
HETATM    2  C3  UNL     1      21.366   0.522  51.877  1.00  0.00     0.070 A 
HETATM    3  C4  UNL     1      21.515   1.834  51.430  1.00  0.00     0.074 A 
HETATM    4  N1  UNL     1      20.637   2.437  50.642  1.00  0.00    -0.241 NA
HETATM    5  C5  UNL     1      20.846   3.707  50.245  1.00  0.00     0.236 A 
HETATM    6  N2  UNL     1      21.961   4.348  50.666  1.00  0.00    -0.224 NA
HETATM    7  C6  UNL     1      22.864   3.753  51.466  1.00  0.00     0.142 A 
HETATM    8  C13 UNL     1      22.672   2.457  51.884  1.00  0.00     0.039 A 
HETATM    9  C14 UNL     1      23.640   1.905  52.703  1.00  0.00     0.029 A 
HETATM   10  C15 UNL     1      23.439   0.596  53.114  1.00  0.00    -0.006 A 
ENDROOT
BRANCH   7  11
HETATM   11  N3  UNL     1      23.953   4.607  51.776  1.00  0.00    -0.340 N 
HETATM   12  H6  UNL     1      24.095   5.189  52.632  1.00  0.00     0.167 HD
BRANCH  11  13
HETATM   13  C7  UNL     1      25.003   4.694  50.801  1.00  0.00     0.035 A 
HETATM   14  C8  UNL     1      25.839   3.627  50.487  1.00  0.00     0.032 A 
HETATM   15  C9  UNL     1      26.843   3.687  49.548  1.00  0.00     0.046 A 
HETATM   16  C10 UNL     1      27.043   4.880  48.866  1.00  0.00     0.138 A 
HETATM   17  F1  UNL     1      28.037   4.902  47.946  1.00  0.00    -0.204 F 
HETATM   18  C11 UNL     1      26.237   5.984  49.138  1.00  0.00     0.074 A 
HETATM   19 CL1  UNL     1      26.531   7.465  48.250  1.00  0.00    -0.081 Cl
HETATM   20  C12 UNL     1      25.259   5.853  50.083  1.00  0.00     0.056 A 
ENDBRANCH  11  13
ENDBRANCH   7  11
BRANCH  10  21
HETATM   21  C16 UNL     1      24.514   0.040  53.970  1.00  0.00     0.158 C 
BRANCH  21  22
HETATM   22  N4  UNL     1      25.776   0.339  53.464  1.00  0.00    -0.412 N 
HETATM   23  C17 UNL     1      26.336  -0.317  52.372  1.00  0.00     0.143 C 
BRANCH  22  24
HETATM   24  C18 UNL     1      26.643   1.142  54.264  1.00  0.00     0.125 C 
BRANCH  24  25
HETATM   25  C19 UNL     1      27.576   2.027  53.475  1.00  0.00     0.115 C 
BRANCH  25  26
HETATM   26  C20 UNL     1      28.949   1.688  53.938  1.00  0.00     0.196 C 
HETATM   27  N5  UNL     1      29.853   2.381  54.753  1.00  0.00    -0.273 NA
HETATM   28  H20 UNL     1      29.827   2.349  55.804  1.00  0.00     0.127 HD
HETATM   29  H21 UNL     1      29.626   2.194  55.772  1.00  0.00     0.127 HD
HETATM   30  O2  UNL     1      29.633   0.653  53.687  1.00  0.00    -0.280 OA
ENDBRANCH  25  26
ENDBRANCH  24  25
ENDBRANCH  22  24
ENDBRANCH  21  22
ENDBRANCH  10  21
BRANCH   1  31
HETATM   31  O1  UNL     1      22.105  -1.376  53.112  1.00  0.00    -0.355 OA
HETATM   32  C1  UNL     1      21.339  -1.751  54.212  1.00  0.00     0.210 C 
ENDBRANCH   1  31
TORSDOF 8
ENDMDL
MODEL 7
REMARK VINA RESULT:      -7.6      4.221      6.923
REMARK  8 active torsions:
REMARK  status: ('A' for Active; 'I' for Inactive)
REMARK    1  A    between atoms: O1_2  and  C2_3 
REMARK    2  A    between atoms: C6_9  and  N3_10 
REMARK    3  A    between atoms: N3_10  and  C7_11 
REMARK    4  A    between atoms: C15_21  and  C16_22 
REMARK    5  A    between atoms: C16_22  and  N4_23 
REMARK    6  A    between atoms: N4_23  and  C18_25 
REMARK    7  A    between atoms: C18_25  and  C19_26 
REMARK    8  A    between atoms: C19_26  and  C20_27 
REMARK       I    between atoms: C20_27  and  N5_28 
ROOT
HETATM    1  C2  UNL     1      22.772   0.012  53.098  1.00  0.00     0.078 A 
HETATM    2  C3  UNL     1      21.648   0.014  52.289  1.00  0.00     0.070 A 
HETATM    3  C4  UNL     1      21.574   0.765  51.116  1.00  0.00     0.074 A 
HETATM    4  N1  UNL     1      20.508   0.777  50.329  1.00  0.00    -0.241 NA
HETATM    5  C5  UNL     1      20.506   1.523  49.208  1.00  0.00     0.236 A 
HETATM    6  N2  UNL     1      21.604   2.254  48.907  1.00  0.00    -0.224 NA
HETATM    7  C6  UNL     1      22.695   2.254  49.693  1.00  0.00     0.142 A 
HETATM    8  C13 UNL     1      22.721   1.501  50.843  1.00  0.00     0.039 A 
HETATM    9  C14 UNL     1      23.874   1.544  51.604  1.00  0.00     0.029 A 
HETATM   10  C15 UNL     1      23.891   0.776  52.758  1.00  0.00    -0.006 A 
ENDROOT
BRANCH   7  11
HETATM   11  N3  UNL     1      23.726   3.084  49.183  1.00  0.00    -0.340 N 
HETATM   12  H6  UNL     1      24.568   2.805  48.632  1.00  0.00     0.167 HD
BRANCH  11  13
HETATM   13  C7  UNL     1      23.614   4.490  49.451  1.00  0.00     0.035 A 
HETATM   14  C8  UNL     1      23.069   4.998  50.627  1.00  0.00     0.032 A 
HETATM   15  C9  UNL     1      22.963   6.341  50.908  1.00  0.00     0.046 A 
HETATM   16  C10 UNL     1      23.424   7.254  49.968  1.00  0.00     0.138 A 
HETATM   17  F1  UNL     1      23.307   8.568  50.279  1.00  0.00    -0.204 F 
HETATM   18  C11 UNL     1      23.980   6.804  48.771  1.00  0.00     0.074 A 
HETATM   19 CL1  UNL     1      24.546   7.996  47.620  1.00  0.00    -0.081 Cl
HETATM   20  C12 UNL     1      24.053   5.456  48.559  1.00  0.00     0.056 A 
ENDBRANCH  11  13
ENDBRANCH   7  11
BRANCH  10  21
HETATM   21  C16 UNL     1      25.157   0.836  53.528  1.00  0.00     0.158 C 
BRANCH  21  22
HETATM   22  N4  UNL     1      26.205   0.236  52.836  1.00  0.00    -0.412 N 
HETATM   23  C17 UNL     1      26.394  -1.142  52.781  1.00  0.00     0.143 C 
BRANCH  22  24
HETATM   24  C18 UNL     1      27.285   1.064  52.410  1.00  0.00     0.125 C 
BRANCH  24  25
HETATM   25  C19 UNL     1      27.626   2.184  53.362  1.00  0.00     0.115 C 
BRANCH  25  26
HETATM   26  C20 UNL     1      28.957   1.841  53.935  1.00  0.00     0.196 C 
HETATM   27  N5  UNL     1      29.938   0.930  53.526  1.00  0.00    -0.273 NA
HETATM   28  H20 UNL     1      30.658   1.145  52.790  1.00  0.00     0.127 HD
HETATM   29  H21 UNL     1      30.543   1.374  52.777  1.00  0.00     0.127 HD
HETATM   30  O2  UNL     1      29.519   2.320  54.963  1.00  0.00    -0.280 OA
ENDBRANCH  25  26
ENDBRANCH  24  25
ENDBRANCH  22  24
ENDBRANCH  21  22
ENDBRANCH  10  21
BRANCH   1  31
HETATM   31  O1  UNL     1      22.797  -0.735  54.237  1.00  0.00    -0.355 OA
HETATM   32  C1  UNL     1      21.854  -1.703  54.574  1.00  0.00     0.210 C 
ENDBRANCH   1  31
TORSDOF 8
ENDMDL
MODEL 8
REMARK VINA RESULT:      -7.6      3.551      5.870
REMARK  8 active torsions:
REMARK  status: ('A' for Active; 'I' for Inactive)
REMARK    1  A    between atoms: O1_2  and  C2_3 
REMARK    2  A    between atoms: C6_9  and  N3_10 
REMARK    3  A    between atoms: N3_10  and  C7_11 
REMARK    4  A    between atoms: C15_21  and  C16_22 
REMARK    5  A    between atoms: C16_22  and  N4_23 
REMARK    6  A    between atoms: N4_23  and  C18_25 
REMARK    7  A    between atoms: C18_25  and  C19_26 
REMARK    8  A    between atoms: C19_26  and  C20_27 
REMARK       I    between atoms: C20_27  and  N5_28 
ROOT
HETATM    1  C2  UNL     1      23.147   0.810  53.189  1.00  0.00     0.078 A 
HETATM    2  C3  UNL     1      24.338   1.031  53.861  1.00  0.00     0.070 A 
HETATM    3  C4  UNL     1      25.468   1.546  53.228  1.00  0.00     0.074 A 
HETATM    4  N1  UNL     1      26.614   1.766  53.856  1.00  0.00    -0.241 NA
HETATM    5  C5  UNL     1      27.667   2.268  53.182  1.00  0.00     0.236 A 
HETATM    6  N2  UNL     1      27.530   2.539  51.863  1.00  0.00    -0.224 NA
HETATM    7  C6  UNL     1      26.375   2.323  51.209  1.00  0.00     0.142 A 
HETATM    8  C13 UNL     1      25.287   1.810  51.876  1.00  0.00     0.039 A 
HETATM    9  C14 UNL     1      24.130   1.614  51.144  1.00  0.00     0.029 A 
HETATM   10  C15 UNL     1      23.037   1.102  51.827  1.00  0.00    -0.006 A 
ENDROOT
BRANCH   7  11
HETATM   11  N3  UNL     1      26.456   2.683  49.840  1.00  0.00    -0.340 N 
HETATM   12  H6  UNL     1      26.485   2.053  49.007  1.00  0.00     0.167 HD
BRANCH  11  13
HETATM   13  C7  UNL     1      26.508   4.086  49.544  1.00  0.00     0.035 A 
HETATM   14  C8  UNL     1      25.563   4.996  50.008  1.00  0.00     0.032 A 
HETATM   15  C9  UNL     1      25.600   6.346  49.745  1.00  0.00     0.046 A 
HETATM   16  C10 UNL     1      26.640   6.842  48.969  1.00  0.00     0.138 A 
HETATM   17  F1  UNL     1      26.647   8.176  48.733  1.00  0.00    -0.204 F 
HETATM   18  C11 UNL     1      27.616   5.978  48.475  1.00  0.00     0.074 A 
HETATM   19 CL1  UNL     1      28.906   6.654  47.501  1.00  0.00    -0.081 Cl
HETATM   20  C12 UNL     1      27.516   4.649  48.776  1.00  0.00     0.056 A 
ENDBRANCH  11  13
ENDBRANCH   7  11
BRANCH  10  21
HETATM   21  C16 UNL     1      21.814   0.932  51.007  1.00  0.00     0.158 C 
BRANCH  21  22
HETATM   22  N4  UNL     1      21.218   2.156  50.719  1.00  0.00    -0.412 N 
HETATM   23  C17 UNL     1      21.126   2.677  49.432  1.00  0.00     0.143 C 
BRANCH  22  24
HETATM   24  C18 UNL     1      20.948   3.040  51.806  1.00  0.00     0.125 C 
BRANCH  24  25
HETATM   25  C19 UNL     1      20.862   4.496  51.419  1.00  0.00     0.115 C 
BRANCH  25  26
HETATM   26  C20 UNL     1      22.113   5.127  51.921  1.00  0.00     0.196 C 
HETATM   27  N5  UNL     1      22.643   6.410  51.741  1.00  0.00    -0.273 NA
HETATM   28  H20 UNL     1      22.361   7.241  52.322  1.00  0.00     0.127 HD
HETATM   29  H21 UNL     1      22.206   7.076  52.442  1.00  0.00     0.127 HD
HETATM   30  O2  UNL     1      23.012   4.621  52.653  1.00  0.00    -0.280 OA
ENDBRANCH  25  26
ENDBRANCH  24  25
ENDBRANCH  22  24
ENDBRANCH  21  22
ENDBRANCH  10  21
BRANCH   1  31
HETATM   31  O1  UNL     1      22.069   0.302  53.850  1.00  0.00    -0.355 OA
HETATM   32  C1  UNL     1      22.098  -0.821  54.673  1.00  0.00     0.210 C 
ENDBRANCH   1  31
TORSDOF 8
ENDMDL
MODEL 9
REMARK VINA RESULT:      -7.4      3.723      6.439
REMARK  8 active torsions:
REMARK  status: ('A' for Active; 'I' for Inactive)
REMARK    1  A    between atoms: O1_2  and  C2_3 
REMARK    2  A    between atoms: C6_9  and  N3_10 
REMARK    3  A    between atoms: N3_10  and  C7_11 
REMARK    4  A    between atoms: C15_21  and  C16_22 
REMARK    5  A    between atoms: C16_22  and  N4_23 
REMARK    6  A    between atoms: N4_23  and  C18_25 
REMARK    7  A    between atoms: C18_25  and  C19_26 
REMARK    8  A    between atoms: C19_26  and  C20_27 
REMARK       I    between atoms: C20_27  and  N5_28 
ROOT
HETATM    1  C2  UNL     1      25.911   3.439  50.519  1.00  0.00     0.078 A 
HETATM    2  C3  UNL     1      24.843   4.321  50.491  1.00  0.00     0.070 A 
HETATM    3  C4  UNL     1      23.626   4.041  51.112  1.00  0.00     0.074 A 
HETATM    4  N1  UNL     1      22.596   4.874  51.097  1.00  0.00    -0.241 NA
HETATM    5  C5  UNL     1      21.450   4.541  51.722  1.00  0.00     0.236 A 
HETATM    6  N2  UNL     1      21.375   3.348  52.356  1.00  0.00    -0.224 NA
HETATM    7  C6  UNL     1      22.409   2.490  52.382  1.00  0.00     0.142 A 
HETATM    8  C13 UNL     1      23.589   2.808  51.752  1.00  0.00     0.039 A 
HETATM    9  C14 UNL     1      24.614   1.882  51.819  1.00  0.00     0.029 A 
HETATM   10  C15 UNL     1      25.801   2.216  51.185  1.00  0.00    -0.006 A 
ENDROOT
BRANCH   7  11
HETATM   11  N3  UNL     1      22.111   1.308  53.107  1.00  0.00    -0.340 N 
HETATM   12  H6  UNL     1      22.687   0.835  53.839  1.00  0.00     0.167 HD
BRANCH  11  13
HETATM   13  C7  UNL     1      20.862   0.666  52.807  1.00  0.00     0.035 A 
HETATM   14  C8  UNL     1      20.242  -0.230  53.673  1.00  0.00     0.032 A 
HETATM   15  C9  UNL     1      19.040  -0.847  53.409  1.00  0.00     0.046 A 
HETATM   16  C10 UNL     1      18.399  -0.566  52.210  1.00  0.00     0.138 A 
HETATM   17  F1  UNL     1      17.216  -1.188  51.986  1.00  0.00    -0.204 F 
HETATM   18  C11 UNL     1      18.972   0.324  51.303  1.00  0.00     0.074 A 
HETATM   19 CL1  UNL     1      18.122   0.645  49.806  1.00  0.00    -0.081 Cl
HETATM   20  C12 UNL     1      20.167   0.900  51.631  1.00  0.00     0.056 A 
ENDBRANCH  11  13
ENDBRANCH   7  11
BRANCH  10  21
HETATM   21  C16 UNL     1      26.877   1.203  51.305  1.00  0.00     0.158 C 
BRANCH  21  22
HETATM   22  N4  UNL     1      27.364   1.126  52.607  1.00  0.00    -0.412 N 
HETATM   23  C17 UNL     1      27.864   2.223  53.302  1.00  0.00     0.143 C 
BRANCH  22  24
HETATM   24  C18 UNL     1      27.626  -0.168  53.146  1.00  0.00     0.125 C 
BRANCH  24  25
HETATM   25  C19 UNL     1      26.467  -1.130  53.051  1.00  0.00     0.115 C 
BRANCH  25  26
HETATM   26  C20 UNL     1      25.564  -0.796  54.186  1.00  0.00     0.196 C 
HETATM   27  N5  UNL     1      24.170  -0.697  54.266  1.00  0.00    -0.273 NA
HETATM   28  H20 UNL     1      23.538  -1.524  54.414  1.00  0.00     0.127 HD
HETATM   29  H21 UNL     1      23.755  -1.661  54.417  1.00  0.00     0.127 HD
HETATM   30  O2  UNL     1      25.871  -0.516  55.381  1.00  0.00    -0.280 OA
ENDBRANCH  25  26
ENDBRANCH  24  25
ENDBRANCH  22  24
ENDBRANCH  21  22
ENDBRANCH  10  21
BRANCH   1  31
HETATM   31  O1  UNL     1      27.079   3.755  49.894  1.00  0.00    -0.355 OA
HETATM   32  C1  UNL     1      27.213   4.716  48.896  1.00  0.00     0.210 C 
ENDBRANCH   1  31
TORSDOF 8
ENDMDL
