MODEL 1
REMARK VINA RESULT:      -8.3      0.000      0.000
REMARK  6 active torsions:
REMARK  status: ('A' for Active; 'I' for Inactive)
REMARK    1  A    between atoms: C2_2  and  C3_3 
REMARK    2  A    between atoms: C3_3  and  C4_4 
REMARK       I    between atoms: C4_4  and  N1_6 
REMARK    3  A    between atoms: N1_6  and  C5_7 
REMARK    4  A    between atoms: C8_10  and  N2_11 
REMARK    5  A    between atoms: N2_11  and  C9_12 
REMARK    6  A    between atoms: C15_19  and  C16_20 
ROOT
HETATM    1  C5  UNL     1      25.398   1.491  52.741  1.00  0.00     0.016 C 
HETATM    2  C6  UNL     1      24.981   2.749  53.191  1.00  0.00     0.023 C 
HETATM    3  C7  UNL     1      24.479   3.183  51.753  1.00  0.00     0.085 A 
HETATM    4  C8  UNL     1      24.484   2.629  50.494  1.00  0.00     0.038 A 
HETATM    5  C15 UNL     1      23.332   2.089  51.271  1.00  0.00     0.092 A 
HETATM    6  N3  UNL     1      22.746   3.478  51.404  1.00  0.00    -0.288 NA
HETATM    7  C18 UNL     1      23.320   3.883  52.554  1.00  0.00     0.107 C 
HETATM    8  C19 UNL     1      23.927   1.208  52.227  1.00  0.00     0.066 C 
HETATM    9  C20 UNL     1      23.037   0.668  53.280  1.00  0.00     0.019 C 
ENDROOT
BRANCH   4  10
HETATM   10  N2  UNL     1      25.520   3.061  49.671  1.00  0.00    -0.359 N 
HETATM   11  H10 UNL     1      26.233   2.389  49.293  1.00  0.00     0.165 HD
BRANCH  10  12
HETATM   12  C9  UNL     1      25.813   4.359  49.214  1.00  0.00     0.033 A 
HETATM   13  C10 UNL     1      24.965   5.414  48.982  1.00  0.00     0.029 A 
HETATM   14  C11 UNL     1      25.435   6.623  48.506  1.00  0.00     0.004 A 
HETATM   15  C12 UNL     1      26.790   6.705  48.282  1.00  0.00     0.019 A 
HETATM   16  C13 UNL     1      27.687   5.683  48.495  1.00  0.00     0.013 A 
HETATM   17 BR1  UNL     1      29.511   6.074  48.089  1.00  0.00    -0.051 Br
HETATM   18  C14 UNL     1      27.191   4.473  48.975  1.00  0.00     0.048 A 
ENDBRANCH  10  12
ENDBRANCH   4  10
BRANCH   5  19
HETATM   19  C16 UNL     1      22.352   1.427  50.307  1.00  0.00     0.034 C 
HETATM   20  C17 UNL     1      22.132   2.187  49.031  1.00  0.00     0.008 C 
ENDBRANCH   5  19
BRANCH   1  21
HETATM   21  N1  UNL     1      26.609   0.733  52.770  1.00  0.00    -0.331 N 
HETATM   22  C4  UNL     1      27.196   0.549  54.026  1.00  0.00     0.221 C 
HETATM   23  O1  UNL     1      26.724   1.024  55.125  1.00  0.00    -0.273 OA
HETATM   24  H8  UNL     1      27.250   0.235  52.156  1.00  0.00     0.168 HD
BRANCH  22  25
HETATM   25  C3  UNL     1      28.316  -0.057  54.758  1.00  0.00     0.103 C 
BRANCH  25  26
HETATM   26  C2  UNL     1      29.486  -0.376  53.840  1.00  0.00     0.005 C 
HETATM   27  C1  UNL     1      29.422  -1.797  53.325  1.00  0.00     0.005 C 
ENDBRANCH  25  26
ENDBRANCH  22  25
ENDBRANCH   1  21
TORSDOF 6
ENDMDL
MODEL 2
REMARK VINA RESULT:      -8.2      2.644      5.572
REMARK  6 active torsions:
REMARK  status: ('A' for Active; 'I' for Inactive)
REMARK    1  A    between atoms: C2_2  and  C3_3 
REMARK    2  A    between atoms: C3_3  and  C4_4 
REMARK       I    between atoms: C4_4  and  N1_6 
REMARK    3  A    between atoms: N1_6  and  C5_7 
REMARK    4  A    between atoms: C8_10  and  N2_11 
REMARK    5  A    between atoms: N2_11  and  C9_12 
REMARK    6  A    between atoms: C15_19  and  C16_20 
ROOT
HETATM    1  C5  UNL     1      22.870   2.277  50.864  1.00  0.00     0.016 C 
HETATM    2  C6  UNL     1      22.527   3.562  51.302  1.00  0.00     0.023 C 
HETATM    3  C7  UNL     1      24.033   3.946  51.606  1.00  0.00     0.085 A 
HETATM    4  C8  UNL     1      25.247   3.302  51.556  1.00  0.00     0.038 A 
HETATM    5  C15 UNL     1      24.885   3.787  50.194  1.00  0.00     0.092 A 
HETATM    6  N3  UNL     1      24.890   5.220  50.681  1.00  0.00    -0.288 NA
HETATM    7  C18 UNL     1      23.605   5.359  51.063  1.00  0.00     0.107 C 
HETATM    8  C19 UNL     1      23.824   2.923  49.778  1.00  0.00     0.066 C 
HETATM    9  C20 UNL     1      23.119   3.289  48.528  1.00  0.00     0.019 C 
ENDROOT
BRANCH   4  10
HETATM   10  N2  UNL     1      25.693   2.804  52.777  1.00  0.00    -0.359 N 
HETATM   11  H10 UNL     1      25.218   3.062  53.678  1.00  0.00     0.165 HD
BRANCH  10  12
HETATM   12  C9  UNL     1      26.768   1.937  53.048  1.00  0.00     0.033 A 
HETATM   13  C10 UNL     1      28.013   2.223  53.553  1.00  0.00     0.029 A 
HETATM   14  C11 UNL     1      28.960   1.234  53.732  1.00  0.00     0.004 A 
HETATM   15  C12 UNL     1      28.585  -0.042  53.379  1.00  0.00     0.019 A 
HETATM   16  C13 UNL     1      27.354  -0.388  52.868  1.00  0.00     0.013 A 
HETATM   17 BR1  UNL     1      27.110  -2.236  52.457  1.00  0.00    -0.051 Br
HETATM   18  C14 UNL     1      26.414   0.626  52.695  1.00  0.00     0.048 A 
ENDBRANCH  10  12
ENDBRANCH   4  10
BRANCH   5  19
HETATM   19  C16 UNL     1      26.128   3.753  49.310  1.00  0.00     0.034 C 
HETATM   20  C17 UNL     1      26.665   5.106  48.947  1.00  0.00     0.008 C 
ENDBRANCH   5  19
BRANCH   1  21
HETATM   21  N1  UNL     1      22.495   0.939  51.195  1.00  0.00    -0.331 N 
HETATM   22  C4  UNL     1      22.672   0.557  52.529  1.00  0.00     0.221 C 
HETATM   23  O1  UNL     1      23.153   1.320  53.446  1.00  0.00    -0.273 OA
HETATM   24  H8  UNL     1      22.112   0.094  50.776  1.00  0.00     0.168 HD
BRANCH  22  25
HETATM   25  C3  UNL     1      22.519  -0.532  53.503  1.00  0.00     0.103 C 
BRANCH  25  26
HETATM   26  C2  UNL     1      21.277  -0.354  54.362  1.00  0.00     0.005 C 
HETATM   27  C1  UNL     1      20.011  -0.609  53.575  1.00  0.00     0.005 C 
ENDBRANCH  25  26
ENDBRANCH  22  25
ENDBRANCH   1  21
TORSDOF 6
ENDMDL
MODEL 3
REMARK VINA RESULT:      -7.9      2.663      5.545
REMARK  6 active torsions:
REMARK  status: ('A' for Active; 'I' for Inactive)
REMARK    1  A    between atoms: C2_2  and  C3_3 
REMARK    2  A    between atoms: C3_3  and  C4_4 
REMARK       I    between atoms: C4_4  and  N1_6 
REMARK    3  A    between atoms: N1_6  and  C5_7 
REMARK    4  A    between atoms: C8_10  and  N2_11 
REMARK    5  A    between atoms: N2_11  and  C9_12 
REMARK    6  A    between atoms: C15_19  and  C16_20 
ROOT
HETATM    1  C5  UNL     1      22.207   2.760  50.618  1.00  0.00     0.016 C 
HETATM    2  C6  UNL     1      21.797   3.960  51.212  1.00  0.00     0.023 C 
HETATM    3  C7  UNL     1      23.257   4.295  51.726  1.00  0.00     0.085 A 
HETATM    4  C8  UNL     1      24.481   3.669  51.702  1.00  0.00     0.038 A 
HETATM    5  C15 UNL     1      24.251   4.361  50.403  1.00  0.00     0.092 A 
HETATM    6  N3  UNL     1      24.180   5.700  51.105  1.00  0.00    -0.288 NA
HETATM    7  C18 UNL     1      22.861   5.774  51.369  1.00  0.00     0.107 C 
HETATM    8  C19 UNL     1      23.254   3.572  49.750  1.00  0.00     0.066 C 
HETATM    9  C20 UNL     1      22.672   4.127  48.506  1.00  0.00     0.019 C 
ENDROOT
BRANCH   4  10
HETATM   10  N2  UNL     1      24.810   2.987  52.870  1.00  0.00    -0.359 N 
HETATM   11  H10 UNL     1      24.585   3.384  53.816  1.00  0.00     0.165 HD
BRANCH  10  12
HETATM   12  C9  UNL     1      25.454   1.745  53.026  1.00  0.00     0.033 A 
HETATM   13  C10 UNL     1      24.953   0.477  52.862  1.00  0.00     0.029 A 
HETATM   14  C11 UNL     1      25.737  -0.639  53.084  1.00  0.00     0.004 A 
HETATM   15  C12 UNL     1      27.035  -0.406  53.474  1.00  0.00     0.019 A 
HETATM   16  C13 UNL     1      27.591   0.841  53.654  1.00  0.00     0.013 A 
HETATM   17 BR1  UNL     1      29.418   0.868  54.208  1.00  0.00    -0.051 Br
HETATM   18  C14 UNL     1      26.783   1.952  53.425  1.00  0.00     0.048 A 
ENDBRANCH  10  12
ENDBRANCH   4  10
BRANCH   5  19
HETATM   19  C16 UNL     1      25.577   4.470  49.657  1.00  0.00     0.034 C 
HETATM   20  C17 UNL     1      26.418   3.227  49.708  1.00  0.00     0.008 C 
ENDBRANCH   5  19
BRANCH   1  21
HETATM   21  N1  UNL     1      21.825   1.386  50.695  1.00  0.00    -0.331 N 
HETATM   22  C4  UNL     1      21.656   0.860  51.981  1.00  0.00     0.221 C 
HETATM   23  O1  UNL     1      21.833   1.527  53.067  1.00  0.00    -0.273 OA
HETATM   24  H8  UNL     1      21.612   0.585  50.104  1.00  0.00     0.168 HD
BRANCH  22  25
HETATM   25  C3  UNL     1      21.303  -0.333  52.759  1.00  0.00     0.103 C 
BRANCH  25  26
HETATM   26  C2  UNL     1      21.537  -0.129  54.249  1.00  0.00     0.005 C 
HETATM   27  C1  UNL     1      22.260  -1.304  54.868  1.00  0.00     0.005 C 
ENDBRANCH  25  26
ENDBRANCH  22  25
ENDBRANCH   1  21
TORSDOF 6
ENDMDL
MODEL 4
REMARK VINA RESULT:      -7.8      3.568      6.016
REMARK  6 active torsions:
REMARK  status: ('A' for Active; 'I' for Inactive)
REMARK    1  A    between atoms: C2_2  and  C3_3 
REMARK    2  A    between atoms: C3_3  and  C4_4 
REMARK       I    between atoms: C4_4  and  N1_6 
REMARK    3  A    between atoms: N1_6  and  C5_7 
REMARK    4  A    between atoms: C8_10  and  N2_11 
REMARK    5  A    between atoms: N2_11  and  C9_12 
REMARK    6  A    between atoms: C15_19  and  C16_20 
ROOT
HETATM    1  C5  UNL     1      25.334   3.536  50.958  1.00  0.00     0.016 C 
HETATM    2  C6  UNL     1      24.886   3.363  49.643  1.00  0.00     0.023 C 
HETATM    3  C7  UNL     1      23.525   2.703  50.110  1.00  0.00     0.085 A 
HETATM    4  C8  UNL     1      22.963   2.341  51.312  1.00  0.00     0.038 A 
HETATM    5  C15 UNL     1      22.745   3.797  51.079  1.00  0.00     0.092 A 
HETATM    6  N3  UNL     1      21.943   3.498  49.831  1.00  0.00    -0.288 NA
HETATM    7  C18 UNL     1      22.917   3.503  48.901  1.00  0.00     0.107 C 
HETATM    8  C19 UNL     1      24.034   4.386  51.268  1.00  0.00     0.066 C 
HETATM    9  C20 UNL     1      24.173   5.815  50.907  1.00  0.00     0.019 C 
ENDROOT
BRANCH   4  10
HETATM   10  N2  UNL     1      23.102   0.995  51.639  1.00  0.00    -0.359 N 
HETATM   11  H10 UNL     1      23.722   0.359  51.079  1.00  0.00     0.165 HD
BRANCH  10  12
HETATM   12  C9  UNL     1      22.502   0.264  52.681  1.00  0.00     0.033 A 
HETATM   13  C10 UNL     1      23.070  -0.261  53.817  1.00  0.00     0.029 A 
HETATM   14  C11 UNL     1      22.320  -0.978  54.728  1.00  0.00     0.004 A 
HETATM   15  C12 UNL     1      20.985  -1.133  54.434  1.00  0.00     0.019 A 
HETATM   16  C13 UNL     1      20.362  -0.630  53.313  1.00  0.00     0.013 A 
HETATM   17 BR1  UNL     1      18.497  -1.005  53.156  1.00  0.00    -0.051 Br
HETATM   18  C14 UNL     1      21.137   0.090  52.407  1.00  0.00     0.048 A 
ENDBRANCH  10  12
ENDBRANCH   4  10
BRANCH   5  19
HETATM   19  C16 UNL     1      21.664   4.295  52.034  1.00  0.00     0.034 C 
HETATM   20  C17 UNL     1      20.341   3.601  51.885  1.00  0.00     0.008 C 
ENDBRANCH   5  19
BRANCH   1  21
HETATM   21  N1  UNL     1      26.490   3.168  51.712  1.00  0.00    -0.331 N 
HETATM   22  C4  UNL     1      26.684   1.798  51.921  1.00  0.00     0.221 C 
HETATM   23  O1  UNL     1      25.892   0.879  51.493  1.00  0.00    -0.273 OA
HETATM   24  H8  UNL     1      27.291   3.576  52.190  1.00  0.00     0.168 HD
BRANCH  22  25
HETATM   25  C3  UNL     1      27.554   0.781  52.525  1.00  0.00     0.103 C 
BRANCH  25  26
HETATM   26  C2  UNL     1      26.764  -0.220  53.356  1.00  0.00     0.005 C 
HETATM   27  C1  UNL     1      26.733   0.168  54.818  1.00  0.00     0.005 C 
ENDBRANCH  25  26
ENDBRANCH  22  25
ENDBRANCH   1  21
TORSDOF 6
ENDMDL
MODEL 5
REMARK VINA RESULT:      -7.8      1.364      1.775
REMARK  6 active torsions:
REMARK  status: ('A' for Active; 'I' for Inactive)
REMARK    1  A    between atoms: C2_2  and  C3_3 
REMARK    2  A    between atoms: C3_3  and  C4_4 
REMARK       I    between atoms: C4_4  and  N1_6 
REMARK    3  A    between atoms: N1_6  and  C5_7 
REMARK    4  A    between atoms: C8_10  and  N2_11 
REMARK    5  A    between atoms: N2_11  and  C9_12 
REMARK    6  A    between atoms: C15_19  and  C16_20 
ROOT
HETATM    1  C5  UNL     1      25.004   2.734  52.605  1.00  0.00     0.016 C 
HETATM    2  C6  UNL     1      23.923   3.407  53.187  1.00  0.00     0.023 C 
HETATM    3  C7  UNL     1      23.620   4.224  51.864  1.00  0.00     0.085 A 
HETATM    4  C8  UNL     1      24.192   4.337  50.619  1.00  0.00     0.038 A 
HETATM    5  C15 UNL     1      23.320   3.130  50.658  1.00  0.00     0.092 A 
HETATM    6  N3  UNL     1      22.106   3.991  50.934  1.00  0.00    -0.288 NA
HETATM    7  C18 UNL     1      22.118   4.016  52.281  1.00  0.00     0.107 C 
HETATM    8  C19 UNL     1      24.035   2.198  51.473  1.00  0.00     0.066 C 
HETATM    9  C20 UNL     1      23.318   0.961  51.858  1.00  0.00     0.019 C 
ENDROOT
BRANCH   4  10
HETATM   10  N2  UNL     1      25.032   5.436  50.461  1.00  0.00    -0.359 N 
HETATM   11  H10 UNL     1      24.867   6.330  50.987  1.00  0.00     0.165 HD
BRANCH  10  12
HETATM   12  C9  UNL     1      26.169   5.579  49.644  1.00  0.00     0.033 A 
HETATM   13  C10 UNL     1      27.044   4.622  49.191  1.00  0.00     0.029 A 
HETATM   14  C11 UNL     1      28.131   4.955  48.406  1.00  0.00     0.004 A 
HETATM   15  C12 UNL     1      28.281   6.290  48.107  1.00  0.00     0.019 A 
HETATM   16  C13 UNL     1      27.438   7.292  48.531  1.00  0.00     0.013 A 
HETATM   17 BR1  UNL     1      27.893   9.059  47.972  1.00  0.00    -0.051 Br
HETATM   18  C14 UNL     1      26.348   6.933  49.322  1.00  0.00     0.048 A 
ENDBRANCH  10  12
ENDBRANCH   4  10
BRANCH   5  19
HETATM   19  C16 UNL     1      23.054   2.665  49.229  1.00  0.00     0.034 C 
HETATM   20  C17 UNL     1      22.745   3.773  48.265  1.00  0.00     0.008 C 
ENDBRANCH   5  19
BRANCH   1  21
HETATM   21  N1  UNL     1      26.387   2.542  52.910  1.00  0.00    -0.331 N 
HETATM   22  C4  UNL     1      26.698   1.443  53.718  1.00  0.00     0.221 C 
HETATM   23  O1  UNL     1      25.828   0.626  54.198  1.00  0.00    -0.273 OA
HETATM   24  H8  UNL     1      27.303   2.949  52.735  1.00  0.00     0.168 HD
BRANCH  22  25
HETATM   25  C3  UNL     1      27.778   0.692  54.368  1.00  0.00     0.103 C 
BRANCH  25  26
HETATM   26  C2  UNL     1      28.981   0.520  53.451  1.00  0.00     0.005 C 
HETATM   27  C1  UNL     1      29.576  -0.866  53.564  1.00  0.00     0.005 C 
ENDBRANCH  25  26
ENDBRANCH  22  25
ENDBRANCH   1  21
TORSDOF 6
ENDMDL
MODEL 6
REMARK VINA RESULT:      -7.8      1.571      1.989
REMARK  6 active torsions:
REMARK  status: ('A' for Active; 'I' for Inactive)
REMARK    1  A    between atoms: C2_2  and  C3_3 
REMARK    2  A    between atoms: C3_3  and  C4_4 
REMARK       I    between atoms: C4_4  and  N1_6 
REMARK    3  A    between atoms: N1_6  and  C5_7 
REMARK    4  A    between atoms: C8_10  and  N2_11 
REMARK    5  A    between atoms: N2_11  and  C9_12 
REMARK    6  A    between atoms: C15_19  and  C16_20 
ROOT
HETATM    1  C5  UNL     1      24.776   1.814  52.306  1.00  0.00     0.016 C 
HETATM    2  C6  UNL     1      24.064   2.931  52.761  1.00  0.00     0.023 C 
HETATM    3  C7  UNL     1      23.114   2.938  51.494  1.00  0.00     0.085 A 
HETATM    4  C8  UNL     1      23.012   2.214  50.329  1.00  0.00     0.038 A 
HETATM    5  C15 UNL     1      22.344   1.473  51.437  1.00  0.00     0.092 A 
HETATM    6  N3  UNL     1      21.358   2.606  51.626  1.00  0.00    -0.288 NA
HETATM    7  C18 UNL     1      22.011   3.357  52.534  1.00  0.00     0.107 C 
HETATM    8  C19 UNL     1      23.420   0.998  52.249  1.00  0.00     0.066 C 
HETATM    9  C20 UNL     1      23.055   0.385  53.547  1.00  0.00     0.019 C 
ENDROOT
BRANCH   4  10
HETATM   10  N2  UNL     1      23.602   2.810  49.219  1.00  0.00    -0.359 N 
HETATM   11  H10 UNL     1      23.239   2.635  48.248  1.00  0.00     0.165 HD
BRANCH  10  12
HETATM   12  C9  UNL     1      24.702   3.685  49.155  1.00  0.00     0.033 A 
HETATM   13  C10 UNL     1      26.038   3.422  49.342  1.00  0.00     0.029 A 
HETATM   14  C11 UNL     1      26.985   4.425  49.262  1.00  0.00     0.004 A 
HETATM   15  C12 UNL     1      26.515   5.688  48.985  1.00  0.00     0.019 A 
HETATM   16  C13 UNL     1      25.191   6.011  48.789  1.00  0.00     0.013 A 
HETATM   17 BR1  UNL     1      24.824   7.849  48.429  1.00  0.00    -0.051 Br
HETATM   18  C14 UNL     1      24.253   4.984  48.875  1.00  0.00     0.048 A 
ENDBRANCH  10  12
ENDBRANCH   4  10
BRANCH   5  19
HETATM   19  C16 UNL     1      21.458   0.384  50.840  1.00  0.00     0.034 C 
HETATM   20  C17 UNL     1      20.036   0.410  51.321  1.00  0.00     0.008 C 
ENDBRANCH   5  19
BRANCH   1  21
HETATM   21  N1  UNL     1      26.145   1.496  52.049  1.00  0.00    -0.331 N 
HETATM   22  C4  UNL     1      27.013   1.562  53.144  1.00  0.00     0.221 C 
HETATM   23  O1  UNL     1      26.657   1.897  54.334  1.00  0.00    -0.273 OA
HETATM   24  H8  UNL     1      26.767   1.213  51.296  1.00  0.00     0.168 HD
BRANCH  22  25
HETATM   25  C3  UNL     1      28.398   1.384  53.598  1.00  0.00     0.103 C 
BRANCH  25  26
HETATM   26  C2  UNL     1      28.584   0.074  54.350  1.00  0.00     0.005 C 
HETATM   27  C1  UNL     1      29.608  -0.815  53.678  1.00  0.00     0.005 C 
ENDBRANCH  25  26
ENDBRANCH  22  25
ENDBRANCH   1  21
TORSDOF 6
ENDMDL
MODEL 7
REMARK VINA RESULT:      -7.6      1.446      1.780
REMARK  6 active torsions:
REMARK  status: ('A' for Active; 'I' for Inactive)
REMARK    1  A    between atoms: C2_2  and  C3_3 
REMARK    2  A    between atoms: C3_3  and  C4_4 
REMARK       I    between atoms: C4_4  and  N1_6 
REMARK    3  A    between atoms: N1_6  and  C5_7 
REMARK    4  A    between atoms: C8_10  and  N2_11 
REMARK    5  A    between atoms: N2_11  and  C9_12 
REMARK    6  A    between atoms: C15_19  and  C16_20 
ROOT
HETATM    1  C5  UNL     1      23.837   1.976  52.065  1.00  0.00     0.016 C 
HETATM    2  C6  UNL     1      23.669   3.227  52.670  1.00  0.00     0.023 C 
HETATM    3  C7  UNL     1      23.864   4.002  51.303  1.00  0.00     0.085 A 
HETATM    4  C8  UNL     1      24.159   3.658  50.005  1.00  0.00     0.038 A 
HETATM    5  C15 UNL     1      22.702   3.464  50.252  1.00  0.00     0.092 A 
HETATM    6  N3  UNL     1      22.536   4.939  50.548  1.00  0.00    -0.288 NA
HETATM    7  C18 UNL     1      22.751   4.953  51.878  1.00  0.00     0.107 C 
HETATM    8  C19 UNL     1      22.633   2.308  51.091  1.00  0.00     0.066 C 
HETATM    9  C20 UNL     1      21.309   1.982  51.669  1.00  0.00     0.019 C 
ENDROOT
BRANCH   4  10
HETATM   10  N2  UNL     1      25.499   3.800  49.654  1.00  0.00    -0.359 N 
HETATM   11  H10 UNL     1      26.187   3.021  49.801  1.00  0.00     0.165 HD
BRANCH  10  12
HETATM   12  C9  UNL     1      26.159   4.906  49.087  1.00  0.00     0.033 A 
HETATM   13  C10 UNL     1      25.654   6.130  48.720  1.00  0.00     0.029 A 
HETATM   14  C11 UNL     1      26.459   7.097  48.150  1.00  0.00     0.004 A 
HETATM   15  C12 UNL     1      27.782   6.766  47.976  1.00  0.00     0.019 A 
HETATM   16  C13 UNL     1      28.344   5.557  48.324  1.00  0.00     0.013 A 
HETATM   17 BR1  UNL     1      30.208   5.368  47.958  1.00  0.00    -0.051 Br
HETATM   18  C14 UNL     1      27.514   4.596  48.896  1.00  0.00     0.048 A 
ENDBRANCH  10  12
ENDBRANCH   4  10
BRANCH   5  19
HETATM   19  C16 UNL     1      21.986   3.331  48.912  1.00  0.00     0.034 C 
HETATM   20  C17 UNL     1      22.433   2.160  48.086  1.00  0.00     0.008 C 
ENDBRANCH   5  19
BRANCH   1  21
HETATM   21  N1  UNL     1      24.682   0.841  52.258  1.00  0.00    -0.331 N 
HETATM   22  C4  UNL     1      26.060   1.076  52.201  1.00  0.00     0.221 C 
HETATM   23  O1  UNL     1      26.592   2.226  51.978  1.00  0.00    -0.273 OA
HETATM   24  H8  UNL     1      24.640  -0.160  52.438  1.00  0.00     0.168 HD
BRANCH  22  25
HETATM   25  C3  UNL     1      27.393   0.469  52.303  1.00  0.00     0.103 C 
BRANCH  25  26
HETATM   26  C2  UNL     1      27.401  -0.726  53.245  1.00  0.00     0.005 C 
HETATM   27  C1  UNL     1      27.005  -2.001  52.533  1.00  0.00     0.005 C 
ENDBRANCH  25  26
ENDBRANCH  22  25
ENDBRANCH   1  21
TORSDOF 6
ENDMDL
MODEL 8
REMARK VINA RESULT:      -7.5      3.385      6.494
REMARK  6 active torsions:
REMARK  status: ('A' for Active; 'I' for Inactive)
REMARK    1  A    between atoms: C2_2  and  C3_3 
REMARK    2  A    between atoms: C3_3  and  C4_4 
REMARK       I    between atoms: C4_4  and  N1_6 
REMARK    3  A    between atoms: N1_6  and  C5_7 
REMARK    4  A    between atoms: C8_10  and  N2_11 
REMARK    5  A    between atoms: N2_11  and  C9_12 
REMARK    6  A    between atoms: C15_19  and  C16_20 
ROOT
HETATM    1  C5  UNL     1      22.599   4.055  48.546  1.00  0.00     0.016 C 
HETATM    2  C6  UNL     1      22.599   2.792  47.942  1.00  0.00     0.023 C 
HETATM    3  C7  UNL     1      22.523   2.040  49.334  1.00  0.00     0.085 A 
HETATM    4  C8  UNL     1      22.527   2.409  50.659  1.00  0.00     0.038 A 
HETATM    5  C15 UNL     1      21.150   2.553  50.106  1.00  0.00     0.092 A 
HETATM    6  N3  UNL     1      21.092   1.070  49.809  1.00  0.00    -0.288 NA
HETATM    7  C18 UNL     1      21.585   1.047  48.555  1.00  0.00     0.107 C 
HETATM    8  C19 UNL     1      21.226   3.696  49.251  1.00  0.00     0.066 C 
HETATM    9  C20 UNL     1      20.046   3.972  48.400  1.00  0.00     0.019 C 
ENDROOT
BRANCH   4  10
HETATM   10  N2  UNL     1      23.765   2.314  51.287  1.00  0.00    -0.359 N 
HETATM   11  H10 UNL     1      24.481   3.078  51.201  1.00  0.00     0.165 HD
BRANCH  10  12
HETATM   12  C9  UNL     1      24.280   1.280  52.090  1.00  0.00     0.033 A 
HETATM   13  C10 UNL     1      25.557   0.776  52.150  1.00  0.00     0.029 A 
HETATM   14  C11 UNL     1      25.877  -0.271  52.993  1.00  0.00     0.004 A 
HETATM   15  C12 UNL     1      24.852  -0.771  53.763  1.00  0.00     0.019 A 
HETATM   16  C13 UNL     1      23.555  -0.306  53.746  1.00  0.00     0.013 A 
HETATM   17 BR1  UNL     1      22.335  -1.195  54.914  1.00  0.00    -0.051 Br
HETATM   18  C14 UNL     1      23.255   0.749  52.887  1.00  0.00     0.048 A 
ENDBRANCH  10  12
ENDBRANCH   4  10
BRANCH   5  19
HETATM   19  C16 UNL     1      20.163   2.679  51.262  1.00  0.00     0.034 C 
HETATM   20  C17 UNL     1      20.610   3.602  52.359  1.00  0.00     0.008 C 
ENDBRANCH   5  19
BRANCH   1  21
HETATM   21  N1  UNL     1      23.433   5.215  48.515  1.00  0.00    -0.331 N 
HETATM   22  C4  UNL     1      24.767   5.030  48.895  1.00  0.00     0.221 C 
HETATM   23  O1  UNL     1      25.265   3.906  49.272  1.00  0.00    -0.273 OA
HETATM   24  H8  UNL     1      23.405   6.208  48.297  1.00  0.00     0.168 HD
BRANCH  22  25
HETATM   25  C3  UNL     1      26.069   5.681  49.082  1.00  0.00     0.103 C 
BRANCH  25  26
HETATM   26  C2  UNL     1      27.224   4.716  48.859  1.00  0.00     0.005 C 
HETATM   27  C1  UNL     1      28.462   5.430  48.365  1.00  0.00     0.005 C 
ENDBRANCH  25  26
ENDBRANCH  22  25
ENDBRANCH   1  21
TORSDOF 6
ENDMDL
MODEL 9
REMARK VINA RESULT:      -7.4      3.650      6.922
REMARK  6 active torsions:
REMARK  status: ('A' for Active; 'I' for Inactive)
REMARK    1  A    between atoms: C2_2  and  C3_3 
REMARK    2  A    between atoms: C3_3  and  C4_4 
REMARK       I    between atoms: C4_4  and  N1_6 
REMARK    3  A    between atoms: N1_6  and  C5_7 
REMARK    4  A    between atoms: C8_10  and  N2_11 
REMARK    5  A    between atoms: N2_11  and  C9_12 
REMARK    6  A    between atoms: C15_19  and  C16_20 
ROOT
HETATM    1  C5  UNL     1      25.004   6.207  50.020  1.00  0.00     0.016 C 
HETATM    2  C6  UNL     1      24.359   5.647  48.911  1.00  0.00     0.023 C 
HETATM    3  C7  UNL     1      24.003   4.316  49.693  1.00  0.00     0.085 A 
HETATM    4  C8  UNL     1      24.257   3.806  50.944  1.00  0.00     0.038 A 
HETATM    5  C15 UNL     1      23.095   4.738  51.013  1.00  0.00     0.092 A 
HETATM    6  N3  UNL     1      22.309   3.860  50.063  1.00  0.00    -0.288 NA
HETATM    7  C18 UNL     1      22.660   4.397  48.878  1.00  0.00     0.107 C 
HETATM    8  C19 UNL     1      23.671   6.038  50.857  1.00  0.00     0.066 C 
HETATM    9  C20 UNL     1      22.729   7.168  50.685  1.00  0.00     0.019 C 
ENDROOT
BRANCH   4  10
HETATM   10  N2  UNL     1      25.325   2.917  51.006  1.00  0.00    -0.359 N 
HETATM   11  H10 UNL     1      26.212   3.091  50.470  1.00  0.00     0.165 HD
BRANCH  10  12
HETATM   12  C9  UNL     1      25.441   1.711  51.721  1.00  0.00     0.033 A 
HETATM   13  C10 UNL     1      26.532   0.890  51.877  1.00  0.00     0.029 A 
HETATM   14  C11 UNL     1      26.452  -0.281  52.606  1.00  0.00     0.004 A 
HETATM   15  C12 UNL     1      25.227  -0.572  53.161  1.00  0.00     0.019 A 
HETATM   16  C13 UNL     1      24.101   0.211  53.039  1.00  0.00     0.013 A 
HETATM   17 BR1  UNL     1      22.532  -0.442  53.909  1.00  0.00    -0.051 Br
HETATM   18  C14 UNL     1      24.204   1.387  52.299  1.00  0.00     0.048 A 
ENDBRANCH  10  12
ENDBRANCH   4  10
BRANCH   5  19
HETATM   19  C16 UNL     1      22.357   4.514  52.329  1.00  0.00     0.034 C 
HETATM   20  C17 UNL     1      21.133   3.653  52.212  1.00  0.00     0.008 C 
ENDBRANCH   5  19
BRANCH   1  21
HETATM   21  N1  UNL     1      26.293   6.759  50.295  1.00  0.00    -0.331 N 
HETATM   22  C4  UNL     1      26.439   8.133  50.077  1.00  0.00     0.221 C 
HETATM   23  O1  UNL     1      25.505   8.903  49.641  1.00  0.00    -0.273 OA
HETATM   24  H8  UNL     1      27.219   6.491  50.621  1.00  0.00     0.168 HD
BRANCH  22  25
HETATM   25  C3  UNL     1      27.362   9.273  50.140  1.00  0.00     0.103 C 
BRANCH  25  26
HETATM   26  C2  UNL     1      28.507   9.132  49.149  1.00  0.00     0.005 C 
HETATM   27  C1  UNL     1      29.318  10.405  49.046  1.00  0.00     0.005 C 
ENDBRANCH  25  26
ENDBRANCH  22  25
ENDBRANCH   1  21
TORSDOF 6
ENDMDL
