MODEL 1
REMARK VINA RESULT:      -7.5      0.000      0.000
REMARK  4 active torsions:
REMARK  status: ('A' for Active; 'I' for Inactive)
REMARK    1  A    between atoms: C1_2  and  C2_3 
REMARK       I    between atoms: C1_2  and  N2_12 
REMARK    2  A    between atoms: C3_4  and  C4_5 
REMARK    3  A    between atoms: C4_5  and  N1_6 
REMARK    4  A    between atoms: N2_12  and  C9_13 
ROOT
HETATM    1  O1  UNL     1      24.766   2.207  51.132  1.00  0.00    -0.268 OA
HETATM    2  C1  UNL     1      24.059   2.469  52.133  1.00  0.00     0.245 C 
HETATM    3  N2  UNL     1      24.667   1.920  53.300  1.00  0.00    -0.327 N 
HETATM    4  H13 UNL     1      24.263   2.007  54.261  1.00  0.00     0.169 HD
ENDROOT
BRANCH   2   5
HETATM    5  C2  UNL     1      22.807   3.199  52.240  1.00  0.00     0.072 C 
HETATM    6  C3  UNL     1      21.624   2.630  52.154  1.00  0.00     0.008 C 
BRANCH   6   7
HETATM    7  C4  UNL     1      21.177   1.255  51.949  1.00  0.00     0.300 C 
BRANCH   7   8
HETATM    8  N1  UNL     1      21.257   0.428  53.139  1.00  0.00     0.096 N 
HETATM    9  C5  UNL     1      22.282  -0.566  53.056  1.00  0.00     0.299 C 
HETATM   10  C6  UNL     1      22.374  -1.293  54.369  1.00  0.00     0.198 C 
HETATM   11  O2  UNL     1      21.180  -1.751  54.861  1.00  0.00    -0.388 OA
HETATM   12  C7  UNL     1      20.080  -1.516  54.064  1.00  0.00     0.198 C 
HETATM   13  C8  UNL     1      20.003  -0.089  53.581  1.00  0.00     0.299 C 
ENDBRANCH   7   8
ENDBRANCH   6   7
ENDBRANCH   2   5
BRANCH   3  14
HETATM   14  C9  UNL     1      25.878   1.190  53.348  1.00  0.00     0.019 A 
HETATM   15  C10 UNL     1      27.112   1.657  53.596  1.00  0.00     0.039 A 
HETATM   16  C11 UNL     1      28.053   0.520  53.541  1.00  0.00    -0.009 A 
HETATM   17  C12 UNL     1      29.418   0.542  53.732  1.00  0.00     0.015 A 
HETATM   18  C15 UNL     1      27.346  -0.624  53.255  1.00  0.00     0.050 A 
HETATM   19  C13 UNL     1      30.091  -0.659  53.627  1.00  0.00     0.020 A 
HETATM   20  C14 UNL     1      29.357  -1.813  53.336  1.00  0.00     0.117 A 
HETATM   21  N3  UNL     1      28.023  -1.787  53.157  1.00  0.00    -0.264 NA
HETATM   22  C16 UNL     1      25.905  -0.290  53.111  1.00  0.00     0.117 A 
ENDBRANCH   3  14
TORSDOF 4
ENDMDL
MODEL 2
REMARK VINA RESULT:      -7.4      3.636      6.152
REMARK  4 active torsions:
REMARK  status: ('A' for Active; 'I' for Inactive)
REMARK    1  A    between atoms: C1_2  and  C2_3 
REMARK       I    between atoms: C1_2  and  N2_12 
REMARK    2  A    between atoms: C3_4  and  C4_5 
REMARK    3  A    between atoms: C4_5  and  N1_6 
REMARK    4  A    between atoms: N2_12  and  C9_13 
ROOT
HETATM    1  O1  UNL     1      24.495   3.251  52.936  1.00  0.00    -0.268 OA
HETATM    2  C1  UNL     1      24.017   2.231  52.386  1.00  0.00     0.245 C 
HETATM    3  N2  UNL     1      24.327   2.252  50.995  1.00  0.00    -0.327 N 
HETATM    4  H13 UNL     1      24.036   1.505  50.323  1.00  0.00     0.169 HD
ENDROOT
BRANCH   2   5
HETATM    5  C2  UNL     1      23.253   1.127  52.944  1.00  0.00     0.072 C 
HETATM    6  C3  UNL     1      23.783  -0.033  53.266  1.00  0.00     0.008 C 
BRANCH   6   7
HETATM    7  C4  UNL     1      25.135  -0.580  53.199  1.00  0.00     0.300 C 
BRANCH   7   8
HETATM    8  N1  UNL     1      26.163   0.337  53.660  1.00  0.00     0.096 N 
HETATM    9  C5  UNL     1      27.161   0.594  52.669  1.00  0.00     0.299 C 
HETATM   10  C6  UNL     1      28.112   1.638  53.185  1.00  0.00     0.198 C 
HETATM   11  O2  UNL     1      28.608   1.399  54.439  1.00  0.00    -0.388 OA
HETATM   12  C7  UNL     1      28.198   0.221  55.026  1.00  0.00     0.198 C 
HETATM   13  C8  UNL     1      26.705   0.015  54.939  1.00  0.00     0.299 C 
ENDBRANCH   7   8
ENDBRANCH   6   7
ENDBRANCH   2   5
BRANCH   3  14
HETATM   14  C9  UNL     1      25.059   3.255  50.316  1.00  0.00     0.019 A 
HETATM   15  C10 UNL     1      24.620   4.453  49.897  1.00  0.00     0.039 A 
HETATM   16  C11 UNL     1      25.746   5.150  49.241  1.00  0.00    -0.009 A 
HETATM   17  C12 UNL     1      25.745   6.402  48.665  1.00  0.00     0.015 A 
HETATM   18  C15 UNL     1      26.854   4.337  49.285  1.00  0.00     0.050 A 
HETATM   19  C13 UNL     1      26.929   6.843  48.107  1.00  0.00     0.020 A 
HETATM   20  C14 UNL     1      28.045   6.003  48.160  1.00  0.00     0.117 A 
HETATM   21  N3  UNL     1      28.000   4.787  48.734  1.00  0.00    -0.264 NA
HETATM   22  C16 UNL     1      26.506   3.065  49.973  1.00  0.00     0.117 A 
ENDBRANCH   3  14
TORSDOF 4
ENDMDL
MODEL 3
REMARK VINA RESULT:      -6.8      2.354      4.243
REMARK  4 active torsions:
REMARK  status: ('A' for Active; 'I' for Inactive)
REMARK    1  A    between atoms: C1_2  and  C2_3 
REMARK       I    between atoms: C1_2  and  N2_12 
REMARK    2  A    between atoms: C3_4  and  C4_5 
REMARK    3  A    between atoms: C4_5  and  N1_6 
REMARK    4  A    between atoms: N2_12  and  C9_13 
ROOT
HETATM    1  O1  UNL     1      23.592   1.590  50.800  1.00  0.00    -0.268 OA
HETATM    2  C1  UNL     1      22.738   1.187  51.623  1.00  0.00     0.245 C 
HETATM    3  N2  UNL     1      23.390   0.785  52.826  1.00  0.00    -0.327 N 
HETATM    4  H13 UNL     1      22.886   0.412  53.663  1.00  0.00     0.169 HD
ENDROOT
BRANCH   2   5
HETATM    5  C2  UNL     1      21.292   1.090  51.512  1.00  0.00     0.072 C 
HETATM    6  C3  UNL     1      20.469   2.049  51.876  1.00  0.00     0.008 C 
BRANCH   6   7
HETATM    7  C4  UNL     1      20.658   3.380  52.446  1.00  0.00     0.300 C 
BRANCH   7   8
HETATM    8  N1  UNL     1      21.574   4.217  51.692  1.00  0.00     0.096 N 
HETATM    9  C5  UNL     1      22.637   4.737  52.493  1.00  0.00     0.299 C 
HETATM   10  C6  UNL     1      23.598   5.488  51.613  1.00  0.00     0.198 C 
HETATM   11  O2  UNL     1      23.019   6.406  50.777  1.00  0.00    -0.388 OA
HETATM   12  C7  UNL     1      21.652   6.535  50.892  1.00  0.00     0.198 C 
HETATM   13  C8  UNL     1      20.937   5.207  50.886  1.00  0.00     0.299 C 
ENDBRANCH   7   8
ENDBRANCH   6   7
ENDBRANCH   2   5
BRANCH   3  14
HETATM   14  C9  UNL     1      24.782   0.825  53.076  1.00  0.00     0.019 A 
HETATM   15  C10 UNL     1      25.672  -0.171  52.939  1.00  0.00     0.039 A 
HETATM   16  C11 UNL     1      27.003   0.347  53.318  1.00  0.00    -0.009 A 
HETATM   17  C12 UNL     1      28.203  -0.331  53.328  1.00  0.00     0.015 A 
HETATM   18  C15 UNL     1      26.875   1.667  53.680  1.00  0.00     0.050 A 
HETATM   19  C13 UNL     1      29.323   0.371  53.726  1.00  0.00     0.020 A 
HETATM   20  C14 UNL     1      29.175   1.712  54.092  1.00  0.00     0.117 A 
HETATM   21  N3  UNL     1      27.982   2.335  54.066  1.00  0.00    -0.264 NA
HETATM   22  C16 UNL     1      25.452   2.078  53.554  1.00  0.00     0.117 A 
ENDBRANCH   3  14
TORSDOF 4
ENDMDL
MODEL 4
REMARK VINA RESULT:      -6.8      2.953      5.135
REMARK  4 active torsions:
REMARK  status: ('A' for Active; 'I' for Inactive)
REMARK    1  A    between atoms: C1_2  and  C2_3 
REMARK       I    between atoms: C1_2  and  N2_12 
REMARK    2  A    between atoms: C3_4  and  C4_5 
REMARK    3  A    between atoms: C4_5  and  N1_6 
REMARK    4  A    between atoms: N2_12  and  C9_13 
ROOT
HETATM    1  O1  UNL     1      24.612   2.059  51.150  1.00  0.00    -0.268 OA
HETATM    2  C1  UNL     1      23.923   2.322  52.163  1.00  0.00     0.245 C 
HETATM    3  N2  UNL     1      24.543   1.760  53.318  1.00  0.00    -0.327 N 
HETATM    4  H13 UNL     1      24.154   1.846  54.285  1.00  0.00     0.169 HD
ENDROOT
BRANCH   2   5
HETATM    5  C2  UNL     1      22.679   3.063  52.293  1.00  0.00     0.072 C 
HETATM    6  C3  UNL     1      22.593   4.368  52.150  1.00  0.00     0.008 C 
BRANCH   6   7
HETATM    7  C4  UNL     1      23.563   5.418  51.852  1.00  0.00     0.300 C 
BRANCH   7   8
HETATM    8  N1  UNL     1      23.145   6.320  50.794  1.00  0.00     0.096 N 
HETATM    9  C5  UNL     1      23.797   7.590  50.859  1.00  0.00     0.299 C 
HETATM   10  C6  UNL     1      23.398   8.413  49.665  1.00  0.00     0.198 C 
HETATM   11  O2  UNL     1      22.049   8.481  49.435  1.00  0.00    -0.388 OA
HETATM   12  C7  UNL     1      21.256   7.823  50.351  1.00  0.00     0.198 C 
HETATM   13  C8  UNL     1      21.731   6.418  50.631  1.00  0.00     0.299 C 
ENDBRANCH   7   8
ENDBRANCH   6   7
ENDBRANCH   2   5
BRANCH   3  14
HETATM   14  C9  UNL     1      25.747   1.019  53.343  1.00  0.00     0.019 A 
HETATM   15  C10 UNL     1      26.990   1.474  53.571  1.00  0.00     0.039 A 
HETATM   16  C11 UNL     1      27.920   0.327  53.497  1.00  0.00    -0.009 A 
HETATM   17  C12 UNL     1      29.287   0.336  53.665  1.00  0.00     0.015 A 
HETATM   18  C15 UNL     1      27.197  -0.809  53.222  1.00  0.00     0.050 A 
HETATM   19  C13 UNL     1      29.947  -0.871  53.545  1.00  0.00     0.020 A 
HETATM   20  C14 UNL     1      29.197  -2.017  53.265  1.00  0.00     0.117 A 
HETATM   21  N3  UNL     1      27.860  -1.978  53.110  1.00  0.00    -0.264 NA
HETATM   22  C16 UNL     1      25.756  -0.461  53.103  1.00  0.00     0.117 A 
ENDBRANCH   3  14
TORSDOF 4
ENDMDL
MODEL 5
REMARK VINA RESULT:      -6.7      1.869      2.629
REMARK  4 active torsions:
REMARK  status: ('A' for Active; 'I' for Inactive)
REMARK    1  A    between atoms: C1_2  and  C2_3 
REMARK       I    between atoms: C1_2  and  N2_12 
REMARK    2  A    between atoms: C3_4  and  C4_5 
REMARK    3  A    between atoms: C4_5  and  N1_6 
REMARK    4  A    between atoms: N2_12  and  C9_13 
ROOT
HETATM    1  O1  UNL     1      25.978   3.208  50.444  1.00  0.00    -0.268 OA
HETATM    2  C1  UNL     1      25.166   3.613  51.307  1.00  0.00     0.245 C 
HETATM    3  N2  UNL     1      25.372   2.902  52.525  1.00  0.00    -0.327 N 
HETATM    4  H13 UNL     1      24.814   3.064  53.395  1.00  0.00     0.169 HD
ENDROOT
BRANCH   2   5
HETATM    5  C2  UNL     1      24.130   4.631  51.226  1.00  0.00     0.072 C 
HETATM    6  C3  UNL     1      22.963   4.435  50.653  1.00  0.00     0.008 C 
BRANCH   6   7
HETATM    7  C4  UNL     1      22.347   3.296  49.978  1.00  0.00     0.300 C 
BRANCH   7   8
HETATM    8  N1  UNL     1      21.696   2.362  50.878  1.00  0.00     0.096 N 
HETATM    9  C5  UNL     1      21.063   3.008  51.986  1.00  0.00     0.299 C 
HETATM   10  C6  UNL     1      20.317   1.984  52.796  1.00  0.00     0.198 C 
HETATM   11  O2  UNL     1      21.043   0.871  53.130  1.00  0.00    -0.388 OA
HETATM   12  C7  UNL     1      22.356   0.870  52.712  1.00  0.00     0.198 C 
HETATM   13  C8  UNL     1      22.507   1.252  51.260  1.00  0.00     0.299 C 
ENDBRANCH   7   8
ENDBRANCH   6   7
ENDBRANCH   2   5
BRANCH   3  14
HETATM   14  C9  UNL     1      26.337   1.892  52.750  1.00  0.00     0.019 A 
HETATM   15  C10 UNL     1      26.212   0.571  52.540  1.00  0.00     0.039 A 
HETATM   16  C11 UNL     1      27.484  -0.077  52.922  1.00  0.00    -0.009 A 
HETATM   17  C12 UNL     1      27.798  -1.418  52.870  1.00  0.00     0.015 A 
HETATM   18  C15 UNL     1      28.358   0.890  53.359  1.00  0.00     0.050 A 
HETATM   19  C13 UNL     1      29.061  -1.788  53.286  1.00  0.00     0.020 A 
HETATM   20  C14 UNL     1      29.937  -0.792  53.728  1.00  0.00     0.117 A 
HETATM   21  N3  UNL     1      29.587   0.507  53.761  1.00  0.00    -0.264 NA
HETATM   22  C16 UNL     1      27.699   2.221  53.285  1.00  0.00     0.117 A 
ENDBRANCH   3  14
TORSDOF 4
ENDMDL
MODEL 6
REMARK VINA RESULT:      -6.7      2.476      3.061
REMARK  4 active torsions:
REMARK  status: ('A' for Active; 'I' for Inactive)
REMARK    1  A    between atoms: C1_2  and  C2_3 
REMARK       I    between atoms: C1_2  and  N2_12 
REMARK    2  A    between atoms: C3_4  and  C4_5 
REMARK    3  A    between atoms: C4_5  and  N1_6 
REMARK    4  A    between atoms: N2_12  and  C9_13 
ROOT
HETATM    1  O1  UNL     1      26.622   2.926  49.681  1.00  0.00    -0.268 OA
HETATM    2  C1  UNL     1      25.760   3.506  50.381  1.00  0.00     0.245 C 
HETATM    3  N2  UNL     1      25.793   2.982  51.707  1.00  0.00    -0.327 N 
HETATM    4  H13 UNL     1      25.165   3.309  52.477  1.00  0.00     0.169 HD
ENDROOT
BRANCH   2   5
HETATM    5  C2  UNL     1      24.815   4.556  50.038  1.00  0.00     0.072 C 
HETATM    6  C3  UNL     1      23.546   4.334  49.773  1.00  0.00     0.008 C 
BRANCH   6   7
HETATM    7  C4  UNL     1      22.720   3.131  49.728  1.00  0.00     0.300 C 
BRANCH   7   8
HETATM    8  N1  UNL     1      21.805   3.004  50.848  1.00  0.00     0.096 N 
HETATM    9  C5  UNL     1      20.964   1.853  50.750  1.00  0.00     0.299 C 
HETATM   10  C6  UNL     1      20.138   1.734  52.001  1.00  0.00     0.198 C 
HETATM   11  O2  UNL     1      19.487   2.881  52.374  1.00  0.00    -0.388 OA
HETATM   12  C7  UNL     1      19.649   3.958  51.529  1.00  0.00     0.198 C 
HETATM   13  C8  UNL     1      21.093   4.200  51.162  1.00  0.00     0.299 C 
ENDBRANCH   7   8
ENDBRANCH   6   7
ENDBRANCH   2   5
BRANCH   3  14
HETATM   14  C9  UNL     1      26.654   1.966  52.183  1.00  0.00     0.019 A 
HETATM   15  C10 UNL     1      27.854   2.110  52.769  1.00  0.00     0.039 A 
HETATM   16  C11 UNL     1      28.371   0.764  53.093  1.00  0.00    -0.009 A 
HETATM   17  C12 UNL     1      29.566   0.441  53.699  1.00  0.00     0.015 A 
HETATM   18  C15 UNL     1      27.451  -0.172  52.685  1.00  0.00     0.050 A 
HETATM   19  C13 UNL     1      29.834  -0.899  53.896  1.00  0.00     0.020 A 
HETATM   20  C14 UNL     1      28.887  -1.838  53.474  1.00  0.00     0.117 A 
HETATM   21  N3  UNL     1      27.732  -1.476  52.887  1.00  0.00    -0.264 NA
HETATM   22  C16 UNL     1      26.284   0.517  52.074  1.00  0.00     0.117 A 
ENDBRANCH   3  14
TORSDOF 4
ENDMDL
MODEL 7
REMARK VINA RESULT:      -6.6      2.967      5.465
REMARK  4 active torsions:
REMARK  status: ('A' for Active; 'I' for Inactive)
REMARK    1  A    between atoms: C1_2  and  C2_3 
REMARK       I    between atoms: C1_2  and  N2_12 
REMARK    2  A    between atoms: C3_4  and  C4_5 
REMARK    3  A    between atoms: C4_5  and  N1_6 
REMARK    4  A    between atoms: N2_12  and  C9_13 
ROOT
HETATM    1  O1  UNL     1      23.779   1.896  53.346  1.00  0.00    -0.268 OA
HETATM    2  C1  UNL     1      23.704   2.322  52.170  1.00  0.00     0.245 C 
HETATM    3  N2  UNL     1      24.901   1.994  51.468  1.00  0.00    -0.327 N 
HETATM    4  H13 UNL     1      25.075   2.244  50.467  1.00  0.00     0.169 HD
ENDROOT
BRANCH   2   5
HETATM    5  C2  UNL     1      22.639   3.045  51.494  1.00  0.00     0.072 C 
HETATM    6  C3  UNL     1      22.647   4.347  51.313  1.00  0.00     0.008 C 
BRANCH   6   7
HETATM    7  C4  UNL     1      23.583   5.411  51.667  1.00  0.00     0.300 C 
BRANCH   7   8
HETATM    8  N1  UNL     1      24.308   5.956  50.533  1.00  0.00     0.096 N 
HETATM    9  C5  UNL     1      25.426   5.150  50.151  1.00  0.00     0.299 C 
HETATM   10  C6  UNL     1      26.043   5.720  48.903  1.00  0.00     0.198 C 
HETATM   11  O2  UNL     1      26.304   7.065  48.950  1.00  0.00    -0.388 OA
HETATM   12  C7  UNL     1      26.002   7.687  50.142  1.00  0.00     0.198 C 
HETATM   13  C8  UNL     1      24.624   7.342  50.649  1.00  0.00     0.299 C 
ENDBRANCH   7   8
ENDBRANCH   6   7
ENDBRANCH   2   5
BRANCH   3  14
HETATM   14  C9  UNL     1      26.014   1.297  51.993  1.00  0.00     0.019 A 
HETATM   15  C10 UNL     1      26.196  -0.032  52.064  1.00  0.00     0.039 A 
HETATM   16  C11 UNL     1      27.511  -0.282  52.690  1.00  0.00    -0.009 A 
HETATM   17  C12 UNL     1      28.101  -1.498  52.960  1.00  0.00     0.015 A 
HETATM   18  C15 UNL     1      28.096   0.926  52.985  1.00  0.00     0.050 A 
HETATM   19  C13 UNL     1      29.345  -1.479  53.558  1.00  0.00     0.020 A 
HETATM   20  C14 UNL     1      29.926  -0.242  53.852  1.00  0.00     0.117 A 
HETATM   21  N3  UNL     1      29.312   0.923  53.570  1.00  0.00    -0.264 NA
HETATM   22  C16 UNL     1      27.192   2.029  52.565  1.00  0.00     0.117 A 
ENDBRANCH   3  14
TORSDOF 4
ENDMDL
MODEL 8
REMARK VINA RESULT:      -6.6      5.340      8.160
REMARK  4 active torsions:
REMARK  status: ('A' for Active; 'I' for Inactive)
REMARK    1  A    between atoms: C1_2  and  C2_3 
REMARK       I    between atoms: C1_2  and  N2_12 
REMARK    2  A    between atoms: C3_4  and  C4_5 
REMARK    3  A    between atoms: C4_5  and  N1_6 
REMARK    4  A    between atoms: N2_12  and  C9_13 
ROOT
HETATM    1  O1  UNL     1      24.480   3.695  49.181  1.00  0.00    -0.268 OA
HETATM    2  C1  UNL     1      25.283   4.604  49.496  1.00  0.00     0.245 C 
HETATM    3  N2  UNL     1      26.052   4.189  50.623  1.00  0.00    -0.327 N 
HETATM    4  H13 UNL     1      26.791   4.779  51.071  1.00  0.00     0.169 HD
ENDROOT
BRANCH   2   5
HETATM    5  C2  UNL     1      25.509   5.912  48.904  1.00  0.00     0.072 C 
HETATM    6  C3  UNL     1      26.673   6.308  48.439  1.00  0.00     0.008 C 
BRANCH   6   7
HETATM    7  C4  UNL     1      27.991   5.685  48.350  1.00  0.00     0.300 C 
BRANCH   7   8
HETATM    8  N1  UNL     1      29.048   6.599  47.959  1.00  0.00     0.096 N 
HETATM    9  C5  UNL     1      30.349   6.011  48.041  1.00  0.00     0.299 C 
HETATM   10  C6  UNL     1      31.366   6.982  47.508  1.00  0.00     0.198 C 
HETATM   11  O2  UNL     1      31.283   8.248  48.026  1.00  0.00    -0.388 OA
HETATM   12  C7  UNL     1      30.312   8.435  48.985  1.00  0.00     0.198 C 
HETATM   13  C8  UNL     1      28.969   7.885  48.573  1.00  0.00     0.299 C 
ENDBRANCH   7   8
ENDBRANCH   6   7
ENDBRANCH   2   5
BRANCH   3  14
HETATM   14  C9  UNL     1      25.944   2.951  51.299  1.00  0.00     0.019 A 
HETATM   15  C10 UNL     1      26.721   1.865  51.160  1.00  0.00     0.039 A 
HETATM   16  C11 UNL     1      26.220   0.820  52.076  1.00  0.00    -0.009 A 
HETATM   17  C12 UNL     1      26.716  -0.452  52.260  1.00  0.00     0.015 A 
HETATM   18  C15 UNL     1      25.132   1.316  52.757  1.00  0.00     0.050 A 
HETATM   19  C13 UNL     1      26.071  -1.256  53.179  1.00  0.00     0.020 A 
HETATM   20  C14 UNL     1      24.967  -0.737  53.861  1.00  0.00     0.117 A 
HETATM   21  N3  UNL     1      24.517   0.514  53.650  1.00  0.00    -0.264 NA
HETATM   22  C16 UNL     1      24.869   2.712  52.318  1.00  0.00     0.117 A 
ENDBRANCH   3  14
TORSDOF 4
ENDMDL
MODEL 9
REMARK VINA RESULT:      -6.5      2.556      3.848
REMARK  4 active torsions:
REMARK  status: ('A' for Active; 'I' for Inactive)
REMARK    1  A    between atoms: C1_2  and  C2_3 
REMARK       I    between atoms: C1_2  and  N2_12 
REMARK    2  A    between atoms: C3_4  and  C4_5 
REMARK    3  A    between atoms: C4_5  and  N1_6 
REMARK    4  A    between atoms: N2_12  and  C9_13 
ROOT
HETATM    1  O1  UNL     1      23.497   0.939  51.917  1.00  0.00    -0.268 OA
HETATM    2  C1  UNL     1      22.847   0.134  52.623  1.00  0.00     0.245 C 
HETATM    3  N2  UNL     1      23.733  -0.540  53.514  1.00  0.00    -0.327 N 
HETATM    4  H13 UNL     1      23.424  -1.263  54.205  1.00  0.00     0.169 HD
ENDROOT
BRANCH   2   5
HETATM    5  C2  UNL     1      21.425  -0.169  52.645  1.00  0.00     0.072 C 
HETATM    6  C3  UNL     1      20.487   0.752  52.700  1.00  0.00     0.008 C 
BRANCH   6   7
HETATM    7  C4  UNL     1      20.505   2.211  52.753  1.00  0.00     0.300 C 
BRANCH   7   8
HETATM    8  N1  UNL     1      19.854   2.847  51.622  1.00  0.00     0.096 N 
HETATM    9  C5  UNL     1      20.270   4.202  51.433  1.00  0.00     0.299 C 
HETATM   10  C6  UNL     1      19.641   4.743  50.179  1.00  0.00     0.198 C 
HETATM   11  O2  UNL     1      18.289   4.547  50.080  1.00  0.00    -0.388 OA
HETATM   12  C7  UNL     1      17.698   3.924  51.158  1.00  0.00     0.198 C 
HETATM   13  C8  UNL     1      18.437   2.682  51.591  1.00  0.00     0.299 C 
ENDBRANCH   7   8
ENDBRANCH   6   7
ENDBRANCH   2   5
BRANCH   3  14
HETATM   14  C9  UNL     1      25.132  -0.349  53.605  1.00  0.00     0.019 A 
HETATM   15  C10 UNL     1      26.105  -1.146  53.134  1.00  0.00     0.039 A 
HETATM   16  C11 UNL     1      27.405  -0.530  53.471  1.00  0.00    -0.009 A 
HETATM   17  C12 UNL     1      28.666  -1.007  53.182  1.00  0.00     0.015 A 
HETATM   18  C15 UNL     1      27.175   0.643  54.149  1.00  0.00     0.050 A 
HETATM   19  C13 UNL     1      29.740  -0.250  53.606  1.00  0.00     0.020 A 
HETATM   20  C14 UNL     1      29.488   0.941  54.294  1.00  0.00     0.117 A 
HETATM   21  N3  UNL     1      28.239   1.367  54.554  1.00  0.00    -0.264 NA
HETATM   22  C16 UNL     1      25.710   0.854  54.288  1.00  0.00     0.117 A 
ENDBRANCH   3  14
TORSDOF 4
ENDMDL
