MODEL 1
REMARK VINA RESULT:      -7.8      0.000      0.000
REMARK  1 active torsions:
REMARK  status: ('A' for Active; 'I' for Inactive)
REMARK    1  A    between atoms: C6_7  and  O1_8 
ROOT
HETATM    1  C1  UNL     1      21.770   0.593  51.140  1.00  0.00     0.044 C 
HETATM    2  C2  UNL     1      23.031   0.849  51.606  1.00  0.00    -0.047 C 
HETATM    3  C3  UNL     1      23.322   0.146  52.816  1.00  0.00     0.005 C 
HETATM    4  C4  UNL     1      23.792  -0.400  53.945  1.00  0.00    -0.007 C 
HETATM    5  C5  UNL     1      25.128   0.022  54.420  1.00  0.00     0.154 C 
HETATM    6  N1  UNL     1      25.563   1.080  53.505  1.00  0.00    -0.337 N 
HETATM    7  C6  UNL     1      24.923   2.373  53.439  1.00  0.00     0.157 C 
HETATM    8  C7  UNL     1      23.846   3.080  53.019  1.00  0.00     0.062 C 
HETATM    9 BR1  UNL     1      23.784   4.992  53.390  1.00  0.00    -0.046 Br
HETATM   10  C8  UNL     1      22.550   3.171  52.371  1.00  0.00     0.036 C 
HETATM   11  C9  UNL     1      22.448   3.487  51.081  1.00  0.00    -0.017 C 
HETATM   12  C10 UNL     1      22.903   2.498  50.315  1.00  0.00    -0.039 C 
HETATM   13  C11 UNL     1      22.404   2.123  48.988  1.00  0.00     0.050 C 
HETATM   14  C12 UNL     1      24.022   1.775  50.977  1.00  0.00    -0.014 C 
HETATM   15  C13 UNL     1      25.001   2.581  50.488  1.00  0.00    -0.017 A 
HETATM   16  C14 UNL     1      25.407   3.617  49.433  1.00  0.00     0.071 A 
HETATM   17  C15 UNL     1      26.662   3.462  50.136  1.00  0.00     0.008 A 
HETATM   18  C16 UNL     1      26.331   2.553  51.072  1.00  0.00     0.033 A 
HETATM   19  N2  UNL     1      27.192   2.025  52.046  1.00  0.00    -0.369 N 
HETATM   20  C17 UNL     1      26.717   0.824  52.648  1.00  0.00     0.182 C 
HETATM   21  C18 UNL     1      26.533  -0.274  51.675  1.00  0.00     0.056 C 
HETATM   22  H15 UNL     1      28.108   2.351  52.414  1.00  0.00     0.161 HD
ENDROOT
BRANCH   7  23
HETATM   23  O1  UNL     1      25.900   3.087  54.112  1.00  0.00    -0.345 OA
HETATM   24  H7  UNL     1      25.737   4.034  54.460  1.00  0.00     0.219 HD
ENDBRANCH   7  23
TORSDOF 1
ENDMDL
MODEL 2
REMARK VINA RESULT:      -7.0      3.497      5.754
REMARK  1 active torsions:
REMARK  status: ('A' for Active; 'I' for Inactive)
REMARK    1  A    between atoms: C6_7  and  O1_8 
ROOT
HETATM    1  C1  UNL     1      21.686   4.061  47.627  1.00  0.00     0.044 C 
HETATM    2  C2  UNL     1      22.437   4.870  48.435  1.00  0.00    -0.047 C 
HETATM    3  C3  UNL     1      23.035   5.954  47.721  1.00  0.00     0.005 C 
HETATM    4  C4  UNL     1      23.694   7.021  47.250  1.00  0.00    -0.007 C 
HETATM    5  C5  UNL     1      24.563   7.771  48.182  1.00  0.00     0.154 C 
HETATM    6  N1  UNL     1      24.541   7.022  49.442  1.00  0.00    -0.337 N 
HETATM    7  C6  UNL     1      25.127   5.710  49.585  1.00  0.00     0.157 C 
HETATM    8  C7  UNL     1      25.010   4.386  49.323  1.00  0.00     0.062 C 
HETATM    9 BR1  UNL     1      26.409   3.184  49.948  1.00  0.00    -0.046 Br
HETATM   10  C8  UNL     1      24.311   3.256  48.737  1.00  0.00     0.036 C 
HETATM   11  C9  UNL     1      23.459   2.528  49.457  1.00  0.00    -0.017 C 
HETATM   12  C10 UNL     1      22.360   3.225  49.735  1.00  0.00    -0.039 C 
HETATM   13  C11 UNL     1      21.000   2.693  49.871  1.00  0.00     0.050 C 
HETATM   14  C12 UNL     1      22.667   4.672  49.899  1.00  0.00    -0.014 C 
HETATM   15  C13 UNL     1      22.934   4.595  51.229  1.00  0.00    -0.017 A 
HETATM   16  C14 UNL     1      22.782   3.794  52.527  1.00  0.00     0.071 A 
HETATM   17  C15 UNL     1      23.479   4.959  53.026  1.00  0.00     0.008 A 
HETATM   18  C16 UNL     1      23.625   5.683  51.900  1.00  0.00     0.033 A 
HETATM   19  N2  UNL     1      24.244   6.938  51.804  1.00  0.00    -0.369 N 
HETATM   20  C17 UNL     1      23.929   7.649  50.609  1.00  0.00     0.182 C 
HETATM   21  C18 UNL     1      22.484   7.932  50.473  1.00  0.00     0.056 C 
HETATM   22  H15 UNL     1      24.896   7.442  52.438  1.00  0.00     0.161 HD
ENDROOT
BRANCH   7  23
HETATM   23  O1  UNL     1      26.257   6.098  50.284  1.00  0.00    -0.345 OA
HETATM   24  H7  UNL     1      26.429   5.798  51.246  1.00  0.00     0.219 HD
ENDBRANCH   7  23
TORSDOF 1
ENDMDL
MODEL 3
REMARK VINA RESULT:      -7.0      2.625      3.721
REMARK  1 active torsions:
REMARK  status: ('A' for Active; 'I' for Inactive)
REMARK    1  A    between atoms: C6_7  and  O1_8 
ROOT
HETATM    1  C1  UNL     1      21.642   2.271  48.166  1.00  0.00     0.044 C 
HETATM    2  C2  UNL     1      22.608   2.925  48.882  1.00  0.00    -0.047 C 
HETATM    3  C3  UNL     1      22.971   2.229  50.076  1.00  0.00     0.005 C 
HETATM    4  C4  UNL     1      23.446   1.755  51.236  1.00  0.00    -0.007 C 
HETATM    5  C5  UNL     1      24.411   2.588  51.986  1.00  0.00     0.154 C 
HETATM    6  N1  UNL     1      24.516   3.847  51.244  1.00  0.00    -0.337 N 
HETATM    7  C6  UNL     1      23.428   4.791  51.143  1.00  0.00     0.157 C 
HETATM    8  C7  UNL     1      22.234   5.081  50.571  1.00  0.00     0.062 C 
HETATM    9 BR1  UNL     1      21.353   6.751  51.048  1.00  0.00    -0.046 Br
HETATM   10  C8  UNL     1      21.125   4.756  49.693  1.00  0.00     0.036 C 
HETATM   11  C9  UNL     1      21.100   5.182  48.431  1.00  0.00    -0.017 C 
HETATM   12  C10 UNL     1      22.023   4.559  47.703  1.00  0.00    -0.039 C 
HETATM   13  C11 UNL     1      21.923   4.207  46.283  1.00  0.00     0.050 C 
HETATM   14  C12 UNL     1      23.226   4.237  48.519  1.00  0.00    -0.014 C 
HETATM   15  C13 UNL     1      23.859   5.416  48.282  1.00  0.00    -0.017 A 
HETATM   16  C14 UNL     1      23.967   6.662  47.396  1.00  0.00     0.071 A 
HETATM   17  C15 UNL     1      25.058   6.906  48.315  1.00  0.00     0.008 A 
HETATM   18  C16 UNL     1      24.983   5.821  49.108  1.00  0.00     0.033 A 
HETATM   19  N2  UNL     1      25.826   5.535  50.192  1.00  0.00    -0.369 N 
HETATM   20  C17 UNL     1      25.790   4.173  50.611  1.00  0.00     0.182 C 
HETATM   21  C18 UNL     1      26.212   3.234  49.550  1.00  0.00     0.056 C 
HETATM   22  H15 UNL     1      26.467   6.134  50.751  1.00  0.00     0.161 HD
ENDROOT
BRANCH   7  23
HETATM   23  O1  UNL     1      23.922   5.725  52.036  1.00  0.00    -0.345 OA
HETATM   24  H7  UNL     1      24.284   5.460  52.954  1.00  0.00     0.219 HD
ENDBRANCH   7  23
TORSDOF 1
ENDMDL
MODEL 4
REMARK VINA RESULT:      -6.9      2.973      4.740
REMARK  1 active torsions:
REMARK  status: ('A' for Active; 'I' for Inactive)
REMARK    1  A    between atoms: C6_7  and  O1_8 
ROOT
HETATM    1  C1  UNL     1      24.885   2.928  53.054  1.00  0.00     0.044 C 
HETATM    2  C2  UNL     1      23.728   2.221  52.865  1.00  0.00    -0.047 C 
HETATM    3  C3  UNL     1      23.902   0.819  53.080  1.00  0.00     0.005 C 
HETATM    4  C4  UNL     1      23.847  -0.513  53.216  1.00  0.00    -0.007 C 
HETATM    5  C5  UNL     1      22.578  -1.195  52.888  1.00  0.00     0.154 C 
HETATM    6  N1  UNL     1      21.686  -0.156  52.367  1.00  0.00    -0.337 N 
HETATM    7  C6  UNL     1      21.916   0.518  51.111  1.00  0.00     0.157 C 
HETATM    8  C7  UNL     1      22.643   1.446  50.444  1.00  0.00     0.062 C 
HETATM    9 BR1  UNL     1      22.253   1.761  48.562  1.00  0.00    -0.046 Br
HETATM   10  C8  UNL     1      23.699   2.442  50.384  1.00  0.00     0.036 C 
HETATM   11  C9  UNL     1      23.438   3.732  50.584  1.00  0.00    -0.017 C 
HETATM   12  C10 UNL     1      23.124   3.959  51.857  1.00  0.00    -0.039 C 
HETATM   13  C11 UNL     1      23.418   5.173  52.625  1.00  0.00     0.050 C 
HETATM   14  C12 UNL     1      22.411   2.795  52.452  1.00  0.00    -0.014 C 
HETATM   15  C13 UNL     1      21.169   3.209  52.089  1.00  0.00    -0.017 A 
HETATM   16  C14 UNL     1      20.282   4.375  51.638  1.00  0.00     0.071 A 
HETATM   17  C15 UNL     1      19.293   3.322  51.728  1.00  0.00     0.008 A 
HETATM   18  C16 UNL     1      20.050   2.282  52.124  1.00  0.00     0.033 A 
HETATM   19  N2  UNL     1      19.592   0.980  52.374  1.00  0.00    -0.369 N 
HETATM   20  C17 UNL     1      20.495   0.185  53.139  1.00  0.00     0.182 C 
HETATM   21  C18 UNL     1      20.766   0.751  54.478  1.00  0.00     0.056 C 
HETATM   22  H15 UNL     1      18.720   0.485  52.099  1.00  0.00     0.161 HD
ENDROOT
BRANCH   7  23
HETATM   23  O1  UNL     1      20.944  -0.140  50.378  1.00  0.00    -0.345 OA
HETATM   24  H7  UNL     1      20.049   0.298  50.146  1.00  0.00     0.219 HD
ENDBRANCH   7  23
TORSDOF 1
ENDMDL
MODEL 5
REMARK VINA RESULT:      -6.8      8.528     10.181
REMARK  1 active torsions:
REMARK  status: ('A' for Active; 'I' for Inactive)
REMARK    1  A    between atoms: C6_7  and  O1_8 
ROOT
HETATM    1  C1  UNL     1      31.722   8.095  44.407  1.00  0.00     0.044 C 
HETATM    2  C2  UNL     1      31.703   7.687  45.714  1.00  0.00    -0.047 C 
HETATM    3  C3  UNL     1      32.061   6.312  45.864  1.00  0.00     0.005 C 
HETATM    4  C4  UNL     1      32.351   5.055  46.226  1.00  0.00    -0.007 C 
HETATM    5  C5  UNL     1      32.200   4.686  47.649  1.00  0.00     0.154 C 
HETATM    6  N1  UNL     1      31.633   5.865  48.311  1.00  0.00    -0.337 N 
HETATM    7  C6  UNL     1      30.295   6.342  48.053  1.00  0.00     0.157 C 
HETATM    8  C7  UNL     1      29.474   6.993  47.194  1.00  0.00     0.062 C 
HETATM    9 BR1  UNL     1      27.604   7.224  47.685  1.00  0.00    -0.046 Br
HETATM   10  C8  UNL     1      29.222   7.681  45.941  1.00  0.00     0.036 C 
HETATM   11  C9  UNL     1      29.294   9.009  45.859  1.00  0.00    -0.017 C 
HETATM   12  C10 UNL     1      30.554   9.422  45.978  1.00  0.00    -0.039 C 
HETATM   13  C11 UNL     1      31.155  10.588  45.322  1.00  0.00     0.050 C 
HETATM   14  C12 UNL     1      31.328   8.534  46.887  1.00  0.00    -0.014 C 
HETATM   15  C13 UNL     1      31.017   9.212  48.023  1.00  0.00    -0.017 A 
HETATM   16  C14 UNL     1      30.505  10.518  48.642  1.00  0.00     0.071 A 
HETATM   17  C15 UNL     1      30.788   9.760  49.841  1.00  0.00     0.008 A 
HETATM   18  C16 UNL     1      31.241   8.603  49.323  1.00  0.00     0.033 A 
HETATM   19  N2  UNL     1      31.671   7.487  50.055  1.00  0.00    -0.369 N 
HETATM   20  C17 UNL     1      32.450   6.563  49.298  1.00  0.00     0.182 C 
HETATM   21  C18 UNL     1      33.692   7.162  48.764  1.00  0.00     0.056 C 
HETATM   22  H15 UNL     1      31.520   7.205  51.045  1.00  0.00     0.161 HD
ENDROOT
BRANCH   7  23
HETATM   23  O1  UNL     1      29.717   5.887  49.225  1.00  0.00    -0.345 OA
HETATM   24  H7  UNL     1      29.127   6.485  49.808  1.00  0.00     0.219 HD
ENDBRANCH   7  23
TORSDOF 1
ENDMDL
MODEL 6
REMARK VINA RESULT:      -6.4      8.716     11.259
REMARK  1 active torsions:
REMARK  status: ('A' for Active; 'I' for Inactive)
REMARK    1  A    between atoms: C6_7  and  O1_8 
ROOT
HETATM    1  C1  UNL     1      32.421   4.375  48.211  1.00  0.00     0.044 C 
HETATM    2  C2  UNL     1      32.021   5.658  47.955  1.00  0.00    -0.047 C 
HETATM    3  C3  UNL     1      30.599   5.792  47.921  1.00  0.00     0.005 C 
HETATM    4  C4  UNL     1      29.307   6.135  47.832  1.00  0.00    -0.007 C 
HETATM    5  C5  UNL     1      28.978   7.524  47.448  1.00  0.00     0.154 C 
HETATM    6  N1  UNL     1      30.259   8.171  47.149  1.00  0.00    -0.337 N 
HETATM    7  C6  UNL     1      31.076   7.806  46.016  1.00  0.00     0.157 C 
HETATM    8  C7  UNL     1      31.930   6.897  45.485  1.00  0.00     0.062 C 
HETATM    9 BR1  UNL     1      32.644   7.219  43.702  1.00  0.00    -0.046 Br
HETATM   10  C8  UNL     1      32.672   5.651  45.550  1.00  0.00     0.036 C 
HETATM   11  C9  UNL     1      33.933   5.624  45.976  1.00  0.00    -0.017 C 
HETATM   12  C10 UNL     1      33.996   5.875  47.282  1.00  0.00    -0.039 C 
HETATM   13  C11 UNL     1      34.967   5.321  48.231  1.00  0.00     0.050 C 
HETATM   14  C12 UNL     1      32.926   6.821  47.700  1.00  0.00    -0.014 C 
HETATM   15  C13 UNL     1      33.652   7.945  47.466  1.00  0.00    -0.017 A 
HETATM   16  C14 UNL     1      35.041   8.560  47.257  1.00  0.00     0.071 A 
HETATM   17  C15 UNL     1      34.224   9.753  47.209  1.00  0.00     0.008 A 
HETATM   18  C16 UNL     1      32.993   9.238  47.391  1.00  0.00     0.033 A 
HETATM   19  N2  UNL     1      31.796   9.968  47.437  1.00  0.00    -0.369 N 
HETATM   20  C17 UNL     1      30.706   9.255  48.017  1.00  0.00     0.182 C 
HETATM   21  C18 UNL     1      30.959   8.861  49.420  1.00  0.00     0.056 C 
HETATM   22  H15 UNL     1      31.554  10.928  47.119  1.00  0.00     0.161 HD
ENDROOT
BRANCH   7  23
HETATM   23  O1  UNL     1      30.779   8.901  45.224  1.00  0.00    -0.345 OA
HETATM   24  H7  UNL     1      30.351   8.805  44.301  1.00  0.00     0.219 HD
ENDBRANCH   7  23
TORSDOF 1
ENDMDL
MODEL 7
REMARK VINA RESULT:      -6.3      8.505     10.021
REMARK  1 active torsions:
REMARK  status: ('A' for Active; 'I' for Inactive)
REMARK    1  A    between atoms: C6_7  and  O1_8 
ROOT
HETATM    1  C1  UNL     1      28.033   8.494  44.906  1.00  0.00     0.044 C 
HETATM    2  C2  UNL     1      28.535   8.927  46.104  1.00  0.00    -0.047 C 
HETATM    3  C3  UNL     1      29.379   7.957  46.727  1.00  0.00     0.005 C 
HETATM    4  C4  UNL     1      30.182   7.197  47.483  1.00  0.00    -0.007 C 
HETATM    5  C5  UNL     1      30.586   7.713  48.808  1.00  0.00     0.154 C 
HETATM    6  N1  UNL     1      29.859   8.973  48.987  1.00  0.00    -0.337 N 
HETATM    7  C6  UNL     1      28.425   9.035  49.143  1.00  0.00     0.157 C 
HETATM    8  C7  UNL     1      27.218   8.951  48.534  1.00  0.00     0.062 C 
HETATM    9 BR1  UNL     1      25.611   9.186  49.610  1.00  0.00    -0.046 Br
HETATM   10  C8  UNL     1      26.391   8.740  47.359  1.00  0.00     0.036 C 
HETATM   11  C9  UNL     1      25.966   9.766  46.624  1.00  0.00    -0.017 C 
HETATM   12  C10 UNL     1      26.978  10.326  45.966  1.00  0.00    -0.039 C 
HETATM   13  C11 UNL     1      26.917  10.955  44.642  1.00  0.00     0.050 C 
HETATM   14  C12 UNL     1      28.242  10.243  46.748  1.00  0.00    -0.014 C 
HETATM   15  C13 UNL     1      28.053  11.410  47.418  1.00  0.00    -0.017 A 
HETATM   16  C14 UNL     1      27.317  12.754  47.479  1.00  0.00     0.071 A 
HETATM   17  C15 UNL     1      28.180  12.882  48.633  1.00  0.00     0.008 A 
HETATM   18  C16 UNL     1      28.840  11.709  48.603  1.00  0.00     0.033 A 
HETATM   19  N2  UNL     1      29.825  11.296  49.511  1.00  0.00    -0.369 N 
HETATM   20  C17 UNL     1      30.626  10.213  49.044  1.00  0.00     0.182 C 
HETATM   21  C18 UNL     1      31.369  10.539  47.808  1.00  0.00     0.056 C 
HETATM   22  H15 UNL     1      30.075  11.628  50.464  1.00  0.00     0.161 HD
ENDROOT
BRANCH   7  23
HETATM   23  O1  UNL     1      28.406   9.280  50.505  1.00  0.00    -0.345 OA
HETATM   24  H7  UNL     1      27.832   8.731  51.148  1.00  0.00     0.219 HD
ENDBRANCH   7  23
TORSDOF 1
ENDMDL
MODEL 8
REMARK VINA RESULT:      -6.3      3.286      4.684
REMARK  1 active torsions:
REMARK  status: ('A' for Active; 'I' for Inactive)
REMARK    1  A    between atoms: C6_7  and  O1_8 
ROOT
HETATM    1  C1  UNL     1      22.418   2.077  47.686  1.00  0.00     0.044 C 
HETATM    2  C2  UNL     1      22.309   2.643  48.927  1.00  0.00    -0.047 C 
HETATM    3  C3  UNL     1      22.497   1.696  49.980  1.00  0.00     0.005 C 
HETATM    4  C4  UNL     1      22.625   0.983  51.107  1.00  0.00    -0.007 C 
HETATM    5  C5  UNL     1      22.385   1.666  52.396  1.00  0.00     0.154 C 
HETATM    6  N1  UNL     1      21.940   3.020  52.056  1.00  0.00    -0.337 N 
HETATM    7  C6  UNL     1      20.677   3.292  51.412  1.00  0.00     0.157 C 
HETATM    8  C7  UNL     1      19.967   3.260  50.259  1.00  0.00     0.062 C 
HETATM    9 BR1  UNL     1      18.121   3.883  50.282  1.00  0.00    -0.046 Br
HETATM   10  C8  UNL     1      19.838   2.955  48.845  1.00  0.00     0.036 C 
HETATM   11  C9  UNL     1      20.069   3.884  47.918  1.00  0.00    -0.017 C 
HETATM   12  C10 UNL     1      21.364   4.186  47.865  1.00  0.00    -0.039 C 
HETATM   13  C11 UNL     1      22.119   4.577  46.670  1.00  0.00     0.050 C 
HETATM   14  C12 UNL     1      21.998   4.079  49.206  1.00  0.00    -0.014 C 
HETATM   15  C13 UNL     1      21.732   5.359  49.576  1.00  0.00    -0.017 A 
HETATM   16  C14 UNL     1      21.358   6.776  49.126  1.00  0.00     0.071 A 
HETATM   17  C15 UNL     1      21.510   6.991  50.548  1.00  0.00     0.008 A 
HETATM   18  C16 UNL     1      21.840   5.756  50.969  1.00  0.00     0.033 A 
HETATM   19  N2  UNL     1      22.111   5.384  52.294  1.00  0.00    -0.369 N 
HETATM   20  C17 UNL     1      22.801   4.142  52.417  1.00  0.00     0.182 C 
HETATM   21  C18 UNL     1      24.121   4.149  51.752  1.00  0.00     0.056 C 
HETATM   22  H15 UNL     1      21.896   5.842  53.203  1.00  0.00     0.161 HD
ENDROOT
BRANCH   7  23
HETATM   23  O1  UNL     1      20.011   3.771  52.527  1.00  0.00    -0.345 OA
HETATM   24  H7  UNL     1      20.355   4.570  53.063  1.00  0.00     0.219 HD
ENDBRANCH   7  23
TORSDOF 1
ENDMDL
MODEL 9
REMARK VINA RESULT:      -6.3      7.473      9.878
REMARK  1 active torsions:
REMARK  status: ('A' for Active; 'I' for Inactive)
REMARK    1  A    between atoms: C6_7  and  O1_8 
ROOT
HETATM    1  C1  UNL     1      30.176   5.892  48.373  1.00  0.00     0.044 C 
HETATM    2  C2  UNL     1      29.355   6.987  48.378  1.00  0.00    -0.047 C 
HETATM    3  C3  UNL     1      27.973   6.635  48.294  1.00  0.00     0.005 C 
HETATM    4  C4  UNL     1      26.640   6.531  48.208  1.00  0.00    -0.007 C 
HETATM    5  C5  UNL     1      25.847   7.776  48.115  1.00  0.00     0.154 C 
HETATM    6  N1  UNL     1      26.822   8.867  48.036  1.00  0.00    -0.337 N 
HETATM    7  C6  UNL     1      27.691   9.062  46.899  1.00  0.00     0.157 C 
HETATM    8  C7  UNL     1      28.793   8.638  46.234  1.00  0.00     0.062 C 
HETATM    9 BR1  UNL     1      29.317   9.571  44.606  1.00  0.00    -0.046 Br
HETATM   10  C8  UNL     1      29.918   7.736  46.070  1.00  0.00     0.036 C 
HETATM   11  C9  UNL     1      31.122   8.043  46.552  1.00  0.00    -0.017 C 
HETATM   12  C10 UNL     1      31.122   8.003  47.882  1.00  0.00    -0.039 C 
HETATM   13  C11 UNL     1      32.244   7.613  48.743  1.00  0.00     0.050 C 
HETATM   14  C12 UNL     1      29.802   8.412  48.434  1.00  0.00    -0.014 C 
HETATM   15  C13 UNL     1      30.093   9.738  48.490  1.00  0.00    -0.017 A 
HETATM   16  C14 UNL     1      31.183  10.817  48.498  1.00  0.00     0.071 A 
HETATM   17  C15 UNL     1      30.006  11.642  48.663  1.00  0.00     0.008 A 
HETATM   18  C16 UNL     1      29.030  10.714  48.659  1.00  0.00     0.033 A 
HETATM   19  N2  UNL     1      27.657  10.966  48.792  1.00  0.00    -0.369 N 
HETATM   20  C17 UNL     1      26.889   9.816  49.142  1.00  0.00     0.182 C 
HETATM   21  C18 UNL     1      27.291   9.229  50.438  1.00  0.00     0.056 C 
HETATM   22  H15 UNL     1      27.094  11.833  48.677  1.00  0.00     0.161 HD
ENDROOT
BRANCH   7  23
HETATM   23  O1  UNL     1      27.021  10.140  46.347  1.00  0.00    -0.345 OA
HETATM   24  H7  UNL     1      26.349  10.694  46.883  1.00  0.00     0.219 HD
ENDBRANCH   7  23
TORSDOF 1
ENDMDL
