MODEL 1
REMARK VINA RESULT:      -8.4      0.000      0.000
REMARK  10 active torsions:
REMARK  status: ('A' for Active; 'I' for Inactive)
REMARK    1  A    between atoms: C2_2  and  C3_3 
REMARK    2  A    between atoms: C4_4  and  C5_5 
REMARK    3  A    between atoms: C5_5  and  C6_6 
REMARK    4  A    between atoms: C6_6  and  N1_7 
REMARK       I    between atoms: N1_7  and  C7_8 
REMARK       I    between atoms: C7_8  and  N2_10 
REMARK    5  A    between atoms: N2_10  and  C8_11 
REMARK    6  A    between atoms: N2_10  and  C15_19 
REMARK    7  A    between atoms: C8_11  and  C9_12 
REMARK    8  A    between atoms: C12_15  and  O2_16 
REMARK    9  A    between atoms: C15_19  and  C16_20 
REMARK   10  A    between atoms: C23_27  and  O3_28 
ROOT
HETATM    1  N1  UNL     1      26.130   2.690  49.614  1.00  0.00    -0.150 NA
HETATM    2  C7  UNL     1      25.302   2.722  50.761  1.00  0.00     0.352 C 
HETATM    3  O1  UNL     1      24.351   2.981  49.983  1.00  0.00    -0.244 OA
HETATM    4  N2  UNL     1      25.795   2.491  52.072  1.00  0.00    -0.323 N 
ENDROOT
BRANCH   4   5
HETATM    5  C8  UNL     1      27.203   2.202  52.263  1.00  0.00     0.166 C 
BRANCH   5   6
HETATM    6  C9  UNL     1      27.451   0.769  52.513  1.00  0.00    -0.040 A 
HETATM    7  C10 UNL     1      26.648  -0.249  52.069  1.00  0.00     0.011 A 
HETATM    8  C11 UNL     1      26.901  -1.574  52.312  1.00  0.00     0.037 A 
HETATM    9  C12 UNL     1      28.011  -1.955  53.038  1.00  0.00     0.065 A 
HETATM   10  C13 UNL     1      28.861  -0.953  53.513  1.00  0.00     0.037 A 
HETATM   11  C14 UNL     1      28.557   0.362  53.239  1.00  0.00     0.011 A 
BRANCH   9  12
HETATM   12  O2  UNL     1      28.309  -3.285  53.309  1.00  0.00    -0.361 OA
HETATM   13  H11 UNL     1      28.293  -3.899  52.493  1.00  0.00     0.217 HD
ENDBRANCH   9  12
ENDBRANCH   5   6
ENDBRANCH   4   5
BRANCH   4  14
HETATM   14  C15 UNL     1      24.943   2.537  53.239  1.00  0.00     0.169 C 
BRANCH  14  15
HETATM   15  C16 UNL     1      23.604   1.960  53.041  1.00  0.00    -0.006 A 
HETATM   16  C17 UNL     1      23.414   0.595  53.285  1.00  0.00     0.018 A 
HETATM   17  C18 UNL     1      22.247  -0.093  53.155  1.00  0.00    -0.061 A 
HETATM   18  C19 UNL     1      22.183  -1.555  53.449  1.00  0.00     0.048 C 
HETATM   19  C20 UNL     1      21.139   0.594  52.749  1.00  0.00     0.016 A 
HETATM   20  C21 UNL     1      21.255   1.931  52.493  1.00  0.00    -0.028 A 
HETATM   21  C22 UNL     1      20.056   2.722  52.042  1.00  0.00     0.051 C 
HETATM   22  C23 UNL     1      22.460   2.606  52.634  1.00  0.00     0.079 A 
BRANCH  22  23
HETATM   23  O3  UNL     1      22.574   3.965  52.373  1.00  0.00    -0.360 OA
HETATM   24  H24 UNL     1      22.535   4.647  53.119  1.00  0.00     0.217 HD
ENDBRANCH  22  23
ENDBRANCH  14  15
ENDBRANCH   4  14
BRANCH   1  25
HETATM   25  C6  UNL     1      26.832   3.754  49.391  1.00  0.00    -0.011 C 
BRANCH  25  26
HETATM   26  C5  UNL     1      27.504   4.761  48.845  1.00  0.00     0.077 C 
BRANCH  26  27
HETATM   27  C4  UNL     1      26.616   5.909  48.713  1.00  0.00     0.009 C 
HETATM   28  C3  UNL     1      27.324   6.877  48.162  1.00  0.00    -0.003 C 
BRANCH  28  29
HETATM   29  C2  UNL     1      28.692   6.470  47.892  1.00  0.00    -0.026 C 
HETATM   30  C1  UNL     1      29.690   7.087  47.284  1.00  0.00     0.031 C 
ENDBRANCH  28  29
ENDBRANCH  26  27
ENDBRANCH  25  26
ENDBRANCH   1  25
TORSDOF 10
ENDMDL
MODEL 2
REMARK VINA RESULT:      -8.2      2.243      5.546
REMARK  10 active torsions:
REMARK  status: ('A' for Active; 'I' for Inactive)
REMARK    1  A    between atoms: C2_2  and  C3_3 
REMARK    2  A    between atoms: C4_4  and  C5_5 
REMARK    3  A    between atoms: C5_5  and  C6_6 
REMARK    4  A    between atoms: C6_6  and  N1_7 
REMARK       I    between atoms: N1_7  and  C7_8 
REMARK       I    between atoms: C7_8  and  N2_10 
REMARK    5  A    between atoms: N2_10  and  C8_11 
REMARK    6  A    between atoms: N2_10  and  C15_19 
REMARK    7  A    between atoms: C8_11  and  C9_12 
REMARK    8  A    between atoms: C12_15  and  O2_16 
REMARK    9  A    between atoms: C15_19  and  C16_20 
REMARK   10  A    between atoms: C23_27  and  O3_28 
ROOT
HETATM    1  N1  UNL     1      22.819   3.885  51.364  1.00  0.00    -0.150 NA
HETATM    2  C7  UNL     1      23.399   3.200  52.459  1.00  0.00     0.352 C 
HETATM    3  O1  UNL     1      23.776   4.323  52.874  1.00  0.00    -0.244 OA
HETATM    4  N2  UNL     1      23.327   1.790  52.608  1.00  0.00    -0.323 N 
ENDROOT
BRANCH   4   5
HETATM    5  C8  UNL     1      22.629   1.002  51.610  1.00  0.00     0.166 C 
BRANCH   5   6
HETATM    6  C9  UNL     1      21.379   0.417  52.134  1.00  0.00    -0.040 A 
HETATM    7  C10 UNL     1      20.128   0.683  51.642  1.00  0.00     0.011 A 
HETATM    8  C11 UNL     1      18.982   0.125  52.145  1.00  0.00     0.037 A 
HETATM    9  C12 UNL     1      19.038  -0.760  53.203  1.00  0.00     0.065 A 
HETATM   10  C13 UNL     1      20.292  -1.064  53.739  1.00  0.00     0.037 A 
HETATM   11  C14 UNL     1      21.409  -0.473  53.195  1.00  0.00     0.011 A 
BRANCH   9  12
HETATM   12  O2  UNL     1      17.903  -1.352  53.745  1.00  0.00    -0.361 OA
HETATM   13  H11 UNL     1      17.958  -2.366  53.842  1.00  0.00     0.217 HD
ENDBRANCH   9  12
ENDBRANCH   5   6
ENDBRANCH   4   5
BRANCH   4  14
HETATM   14  C15 UNL     1      23.931   1.097  53.723  1.00  0.00     0.169 C 
BRANCH  14  15
HETATM   15  C16 UNL     1      25.353   0.766  53.538  1.00  0.00    -0.006 A 
HETATM   16  C17 UNL     1      25.697  -0.525  53.121  1.00  0.00     0.018 A 
HETATM   17  C18 UNL     1      26.956  -0.992  52.900  1.00  0.00    -0.061 A 
HETATM   18  C19 UNL     1      27.183  -2.399  52.456  1.00  0.00     0.048 C 
HETATM   19  C20 UNL     1      28.002  -0.138  53.098  1.00  0.00     0.016 A 
HETATM   20  C21 UNL     1      27.736   1.139  53.506  1.00  0.00    -0.028 A 
HETATM   21  C22 UNL     1      28.863   2.110  53.736  1.00  0.00     0.051 C 
HETATM   22  C23 UNL     1      26.441   1.588  53.724  1.00  0.00     0.079 A 
BRANCH  22  23
HETATM   23  O3  UNL     1      26.175   2.886  54.139  1.00  0.00    -0.360 OA
HETATM   24  H24 UNL     1      25.273   3.138  54.523  1.00  0.00     0.217 HD
ENDBRANCH  22  23
ENDBRANCH  14  15
ENDBRANCH   4  14
BRANCH   1  25
HETATM   25  C6  UNL     1      23.497   3.870  50.262  1.00  0.00    -0.011 C 
BRANCH  25  26
HETATM   26  C5  UNL     1      24.437   3.958  49.329  1.00  0.00     0.077 C 
BRANCH  26  27
HETATM   27  C4  UNL     1      25.542   3.075  49.681  1.00  0.00     0.009 C 
HETATM   28  C3  UNL     1      26.655   3.751  49.462  1.00  0.00    -0.003 C 
BRANCH  28  29
HETATM   29  C2  UNL     1      26.394   5.091  48.964  1.00  0.00    -0.026 C 
HETATM   30  C1  UNL     1      27.201   6.034  48.514  1.00  0.00     0.031 C 
ENDBRANCH  28  29
ENDBRANCH  26  27
ENDBRANCH  25  26
ENDBRANCH   1  25
TORSDOF 10
ENDMDL
MODEL 3
REMARK VINA RESULT:      -8.2      2.263      5.548
REMARK  10 active torsions:
REMARK  status: ('A' for Active; 'I' for Inactive)
REMARK    1  A    between atoms: C2_2  and  C3_3 
REMARK    2  A    between atoms: C4_4  and  C5_5 
REMARK    3  A    between atoms: C5_5  and  C6_6 
REMARK    4  A    between atoms: C6_6  and  N1_7 
REMARK       I    between atoms: N1_7  and  C7_8 
REMARK       I    between atoms: C7_8  and  N2_10 
REMARK    5  A    between atoms: N2_10  and  C8_11 
REMARK    6  A    between atoms: N2_10  and  C15_19 
REMARK    7  A    between atoms: C8_11  and  C9_12 
REMARK    8  A    between atoms: C12_15  and  O2_16 
REMARK    9  A    between atoms: C15_19  and  C16_20 
REMARK   10  A    between atoms: C23_27  and  O3_28 
ROOT
HETATM    1  N1  UNL     1      23.514   4.671  51.277  1.00  0.00    -0.150 NA
HETATM    2  C7  UNL     1      23.780   3.787  52.351  1.00  0.00     0.352 C 
HETATM    3  O1  UNL     1      23.776   4.799  53.095  1.00  0.00    -0.244 OA
HETATM    4  N2  UNL     1      23.914   2.385  52.176  1.00  0.00    -0.323 N 
ENDROOT
BRANCH   4   5
HETATM    5  C8  UNL     1      23.770   1.814  50.851  1.00  0.00     0.166 C 
BRANCH   5   6
HETATM    6  C9  UNL     1      22.359   1.558  50.503  1.00  0.00    -0.040 A 
HETATM    7  C10 UNL     1      21.491   0.817  51.261  1.00  0.00     0.011 A 
HETATM    8  C11 UNL     1      20.184   0.596  50.918  1.00  0.00     0.037 A 
HETATM    9  C12 UNL     1      19.664   1.128  49.754  1.00  0.00     0.065 A 
HETATM   10  C13 UNL     1      20.510   1.893  48.946  1.00  0.00     0.037 A 
HETATM   11  C14 UNL     1      21.815   2.081  49.341  1.00  0.00     0.011 A 
BRANCH   9  12
HETATM   12  O2  UNL     1      18.344   0.933  49.365  1.00  0.00    -0.361 OA
HETATM   13  H11 UNL     1      18.144   0.003  48.994  1.00  0.00     0.217 HD
ENDBRANCH   9  12
ENDBRANCH   5   6
ENDBRANCH   4   5
BRANCH   4  14
HETATM   14  C15 UNL     1      24.196   1.491  53.277  1.00  0.00     0.169 C 
BRANCH  14  15
HETATM   15  C16 UNL     1      25.567   0.956  53.293  1.00  0.00    -0.006 A 
HETATM   16  C17 UNL     1      25.780  -0.368  52.894  1.00  0.00     0.018 A 
HETATM   17  C18 UNL     1      26.977  -1.014  52.846  1.00  0.00    -0.061 A 
HETATM   18  C19 UNL     1      27.063  -2.435  52.400  1.00  0.00     0.048 C 
HETATM   19  C20 UNL     1      28.094  -0.323  53.219  1.00  0.00     0.016 A 
HETATM   20  C21 UNL     1      27.957   0.976  53.621  1.00  0.00    -0.028 A 
HETATM   21  C22 UNL     1      29.166   1.770  54.040  1.00  0.00     0.051 C 
HETATM   22  C23 UNL     1      26.722   1.609  53.659  1.00  0.00     0.079 A 
BRANCH  22  23
HETATM   23  O3  UNL     1      26.587   2.928  54.067  1.00  0.00    -0.360 OA
HETATM   24  H24 UNL     1      27.327   3.399  54.573  1.00  0.00     0.217 HD
ENDBRANCH  22  23
ENDBRANCH  14  15
ENDBRANCH   4  14
BRANCH   1  25
HETATM   25  C6  UNL     1      24.531   4.996  50.545  1.00  0.00    -0.011 C 
BRANCH  25  26
HETATM   26  C5  UNL     1      25.385   5.206  49.551  1.00  0.00     0.077 C 
BRANCH  26  27
HETATM   27  C4  UNL     1      26.293   4.070  49.455  1.00  0.00     0.009 C 
HETATM   28  C3  UNL     1      27.392   4.509  48.871  1.00  0.00    -0.003 C 
BRANCH  28  29
HETATM   29  C2  UNL     1      27.312   5.922  48.541  1.00  0.00    -0.026 C 
HETATM   30  C1  UNL     1      28.135   6.720  47.886  1.00  0.00     0.031 C 
ENDBRANCH  28  29
ENDBRANCH  26  27
ENDBRANCH  25  26
ENDBRANCH   1  25
TORSDOF 10
ENDMDL
MODEL 4
REMARK VINA RESULT:      -8.0      2.990      5.730
REMARK  10 active torsions:
REMARK  status: ('A' for Active; 'I' for Inactive)
REMARK    1  A    between atoms: C2_2  and  C3_3 
REMARK    2  A    between atoms: C4_4  and  C5_5 
REMARK    3  A    between atoms: C5_5  and  C6_6 
REMARK    4  A    between atoms: C6_6  and  N1_7 
REMARK       I    between atoms: N1_7  and  C7_8 
REMARK       I    between atoms: C7_8  and  N2_10 
REMARK    5  A    between atoms: N2_10  and  C8_11 
REMARK    6  A    between atoms: N2_10  and  C15_19 
REMARK    7  A    between atoms: C8_11  and  C9_12 
REMARK    8  A    between atoms: C12_15  and  O2_16 
REMARK    9  A    between atoms: C15_19  and  C16_20 
REMARK   10  A    between atoms: C23_27  and  O3_28 
ROOT
HETATM    1  N1  UNL     1      20.158   2.219  51.028  1.00  0.00    -0.150 NA
HETATM    2  C7  UNL     1      21.136   3.068  51.598  1.00  0.00     0.352 C 
HETATM    3  O1  UNL     1      20.247   3.954  51.637  1.00  0.00    -0.244 OA
HETATM    4  N2  UNL     1      22.469   2.647  51.846  1.00  0.00    -0.323 N 
ENDROOT
BRANCH   4   5
HETATM    5  C8  UNL     1      22.862   1.291  51.513  1.00  0.00     0.166 C 
BRANCH   5   6
HETATM    6  C9  UNL     1      23.005   0.441  52.712  1.00  0.00    -0.040 A 
HETATM    7  C10 UNL     1      24.201   0.021  53.231  1.00  0.00     0.011 A 
HETATM    8  C11 UNL     1      24.307  -0.766  54.347  1.00  0.00     0.037 A 
HETATM    9  C12 UNL     1      23.177  -1.185  55.021  1.00  0.00     0.065 A 
HETATM   10  C13 UNL     1      21.932  -0.781  54.531  1.00  0.00     0.037 A 
HETATM   11  C14 UNL     1      21.886   0.009  53.404  1.00  0.00     0.011 A 
BRANCH   9  12
HETATM   12  O2  UNL     1      23.235  -1.982  56.158  1.00  0.00    -0.361 OA
HETATM   13  H11 UNL     1      24.121  -2.471  56.290  1.00  0.00     0.217 HD
ENDBRANCH   9  12
ENDBRANCH   5   6
ENDBRANCH   4   5
BRANCH   4  14
HETATM   14  C15 UNL     1      23.465   3.525  52.418  1.00  0.00     0.169 C 
BRANCH  14  15
HETATM   15  C16 UNL     1      24.033   4.502  51.474  1.00  0.00    -0.006 A 
HETATM   16  C17 UNL     1      25.141   4.132  50.705  1.00  0.00     0.018 A 
HETATM   17  C18 UNL     1      25.783   4.908  49.789  1.00  0.00    -0.061 A 
HETATM   18  C19 UNL     1      26.960   4.387  49.035  1.00  0.00     0.048 C 
HETATM   19  C20 UNL     1      25.317   6.174  49.582  1.00  0.00     0.016 A 
HETATM   20  C21 UNL     1      24.236   6.600  50.301  1.00  0.00    -0.028 A 
HETATM   21  C22 UNL     1      23.694   7.990  50.101  1.00  0.00     0.051 C 
HETATM   22  C23 UNL     1      23.602   5.786  51.230  1.00  0.00     0.079 A 
BRANCH  22  23
HETATM   23  O3  UNL     1      22.504   6.222  51.958  1.00  0.00    -0.360 OA
HETATM   24  H24 UNL     1      21.603   5.768  51.871  1.00  0.00     0.217 HD
ENDBRANCH  22  23
ENDBRANCH  14  15
ENDBRANCH   4  14
BRANCH   1  25
HETATM   25  C6  UNL     1      20.208   2.078  49.743  1.00  0.00    -0.011 C 
BRANCH  25  26
HETATM   26  C5  UNL     1      20.502   2.156  48.451  1.00  0.00     0.077 C 
BRANCH  26  27
HETATM   27  C4  UNL     1      21.759   1.460  48.206  1.00  0.00     0.009 C 
HETATM   28  C3  UNL     1      22.630   2.373  47.817  1.00  0.00    -0.003 C 
BRANCH  28  29
HETATM   29  C2  UNL     1      22.047   3.703  47.772  1.00  0.00    -0.026 C 
HETATM   30  C1  UNL     1      22.574   4.886  47.510  1.00  0.00     0.031 C 
ENDBRANCH  28  29
ENDBRANCH  26  27
ENDBRANCH  25  26
ENDBRANCH   1  25
TORSDOF 10
ENDMDL
MODEL 5
REMARK VINA RESULT:      -7.9      1.997      6.776
REMARK  10 active torsions:
REMARK  status: ('A' for Active; 'I' for Inactive)
REMARK    1  A    between atoms: C2_2  and  C3_3 
REMARK    2  A    between atoms: C4_4  and  C5_5 
REMARK    3  A    between atoms: C5_5  and  C6_6 
REMARK    4  A    between atoms: C6_6  and  N1_7 
REMARK       I    between atoms: N1_7  and  C7_8 
REMARK       I    between atoms: C7_8  and  N2_10 
REMARK    5  A    between atoms: N2_10  and  C8_11 
REMARK    6  A    between atoms: N2_10  and  C15_19 
REMARK    7  A    between atoms: C8_11  and  C9_12 
REMARK    8  A    between atoms: C12_15  and  O2_16 
REMARK    9  A    between atoms: C15_19  and  C16_20 
REMARK   10  A    between atoms: C23_27  and  O3_28 
ROOT
HETATM    1  N1  UNL     1      21.413   2.843  52.149  1.00  0.00    -0.150 NA
HETATM    2  C7  UNL     1      22.307   2.799  51.053  1.00  0.00     0.352 C 
HETATM    3  O1  UNL     1      21.294   2.704  50.317  1.00  0.00    -0.244 OA
HETATM    4  N2  UNL     1      23.716   2.869  51.207  1.00  0.00    -0.323 N 
ENDROOT
BRANCH   4   5
HETATM    5  C8  UNL     1      24.283   2.997  52.537  1.00  0.00     0.166 C 
BRANCH   5   6
HETATM    6  C9  UNL     1      25.241   1.917  52.843  1.00  0.00    -0.040 A 
HETATM    7  C10 UNL     1      26.509   2.114  53.324  1.00  0.00     0.011 A 
HETATM    8  C11 UNL     1      27.380   1.094  53.603  1.00  0.00     0.037 A 
HETATM    9  C12 UNL     1      27.007  -0.221  53.406  1.00  0.00     0.065 A 
HETATM   10  C13 UNL     1      25.723  -0.473  52.916  1.00  0.00     0.037 A 
HETATM   11  C14 UNL     1      24.891   0.591  52.652  1.00  0.00     0.011 A 
BRANCH   9  12
HETATM   12  O2  UNL     1      27.856  -1.288  53.675  1.00  0.00    -0.361 OA
HETATM   13  H11 UNL     1      28.629  -1.393  53.018  1.00  0.00     0.217 HD
ENDBRANCH   9  12
ENDBRANCH   5   6
ENDBRANCH   4   5
BRANCH   4  14
HETATM   14  C15 UNL     1      24.623   2.811  50.083  1.00  0.00     0.169 C 
BRANCH  14  15
HETATM   15  C16 UNL     1      24.923   4.117  49.473  1.00  0.00    -0.006 A 
HETATM   16  C17 UNL     1      23.869   4.885  48.966  1.00  0.00     0.018 A 
HETATM   17  C18 UNL     1      23.971   6.107  48.378  1.00  0.00    -0.061 A 
HETATM   18  C19 UNL     1      22.759   6.820  47.877  1.00  0.00     0.048 C 
HETATM   19  C20 UNL     1      25.214   6.660  48.259  1.00  0.00     0.016 A 
HETATM   20  C21 UNL     1      26.289   5.963  48.733  1.00  0.00    -0.028 A 
HETATM   21  C22 UNL     1      27.675   6.540  48.620  1.00  0.00     0.051 C 
HETATM   22  C23 UNL     1      26.153   4.717  49.330  1.00  0.00     0.079 A 
BRANCH  22  23
HETATM   23  O3  UNL     1      27.248   4.011  49.811  1.00  0.00    -0.360 OA
HETATM   24  H24 UNL     1      27.663   4.234  50.706  1.00  0.00     0.217 HD
ENDBRANCH  22  23
ENDBRANCH  14  15
ENDBRANCH   4  14
BRANCH   1  25
HETATM   25  C6  UNL     1      21.260   1.736  52.801  1.00  0.00    -0.011 C 
BRANCH  25  26
HETATM   26  C5  UNL     1      21.372   0.706  53.631  1.00  0.00     0.077 C 
BRANCH  26  27
HETATM   27  C4  UNL     1      21.283  -0.532  52.867  1.00  0.00     0.009 C 
HETATM   28  C3  UNL     1      21.857  -1.472  53.596  1.00  0.00    -0.003 C 
BRANCH  28  29
HETATM   29  C2  UNL     1      22.358  -0.956  54.859  1.00  0.00    -0.026 C 
HETATM   30  C1  UNL     1      23.344  -1.355  55.643  1.00  0.00     0.031 C 
ENDBRANCH  28  29
ENDBRANCH  26  27
ENDBRANCH  25  26
ENDBRANCH   1  25
TORSDOF 10
ENDMDL
MODEL 6
REMARK VINA RESULT:      -7.9      1.839      6.689
REMARK  10 active torsions:
REMARK  status: ('A' for Active; 'I' for Inactive)
REMARK    1  A    between atoms: C2_2  and  C3_3 
REMARK    2  A    between atoms: C4_4  and  C5_5 
REMARK    3  A    between atoms: C5_5  and  C6_6 
REMARK    4  A    between atoms: C6_6  and  N1_7 
REMARK       I    between atoms: N1_7  and  C7_8 
REMARK       I    between atoms: C7_8  and  N2_10 
REMARK    5  A    between atoms: N2_10  and  C8_11 
REMARK    6  A    between atoms: N2_10  and  C15_19 
REMARK    7  A    between atoms: C8_11  and  C9_12 
REMARK    8  A    between atoms: C12_15  and  O2_16 
REMARK    9  A    between atoms: C15_19  and  C16_20 
REMARK   10  A    between atoms: C23_27  and  O3_28 
ROOT
HETATM    1  N1  UNL     1      22.242   2.485  51.450  1.00  0.00    -0.150 NA
HETATM    2  C7  UNL     1      23.338   2.732  50.590  1.00  0.00     0.352 C 
HETATM    3  O1  UNL     1      22.515   2.696  49.642  1.00  0.00    -0.244 OA
HETATM    4  N2  UNL     1      24.667   2.890  51.064  1.00  0.00    -0.323 N 
ENDROOT
BRANCH   4   5
HETATM    5  C8  UNL     1      24.931   2.804  52.487  1.00  0.00     0.166 C 
BRANCH   5   6
HETATM    6  C9  UNL     1      25.846   1.694  52.820  1.00  0.00    -0.040 A 
HETATM    7  C10 UNL     1      25.635   0.383  52.482  1.00  0.00     0.011 A 
HETATM    8  C11 UNL     1      26.502  -0.629  52.800  1.00  0.00     0.037 A 
HETATM    9  C12 UNL     1      27.664  -0.366  53.498  1.00  0.00     0.065 A 
HETATM   10  C13 UNL     1      27.924   0.957  53.865  1.00  0.00     0.037 A 
HETATM   11  C14 UNL     1      27.017   1.934  53.519  1.00  0.00     0.011 A 
BRANCH   9  12
HETATM   12  O2  UNL     1      28.573  -1.359  53.842  1.00  0.00    -0.361 OA
HETATM   13  H11 UNL     1      29.159  -1.685  53.072  1.00  0.00     0.217 HD
ENDBRANCH   9  12
ENDBRANCH   5   6
ENDBRANCH   4   5
BRANCH   4  14
HETATM   14  C15 UNL     1      25.782   3.130  50.176  1.00  0.00     0.169 C 
BRANCH  14  15
HETATM   15  C16 UNL     1      25.971   4.540  49.800  1.00  0.00    -0.006 A 
HETATM   16  C17 UNL     1      25.055   5.491  50.264  1.00  0.00     0.018 A 
HETATM   17  C18 UNL     1      25.085   6.829  50.014  1.00  0.00    -0.061 A 
HETATM   18  C19 UNL     1      24.039   7.735  50.573  1.00  0.00     0.048 C 
HETATM   19  C20 UNL     1      26.097   7.314  49.238  1.00  0.00     0.016 A 
HETATM   20  C21 UNL     1      27.026   6.439  48.751  1.00  0.00    -0.028 A 
HETATM   21  C22 UNL     1      28.158   6.937  47.891  1.00  0.00     0.051 C 
HETATM   22  C23 UNL     1      26.971   5.079  49.023  1.00  0.00     0.079 A 
BRANCH  22  23
HETATM   23  O3  UNL     1      27.917   4.192  48.527  1.00  0.00    -0.360 OA
HETATM   24  H24 UNL     1      28.536   4.456  47.771  1.00  0.00     0.217 HD
ENDBRANCH  22  23
ENDBRANCH  14  15
ENDBRANCH   4  14
BRANCH   1  25
HETATM   25  C6  UNL     1      22.099   1.263  51.852  1.00  0.00    -0.011 C 
BRANCH  25  26
HETATM   26  C5  UNL     1      22.042   0.139  52.555  1.00  0.00     0.077 C 
BRANCH  26  27
HETATM   27  C4  UNL     1      20.897   0.198  53.455  1.00  0.00     0.009 C 
HETATM   28  C3  UNL     1      21.250  -0.428  54.562  1.00  0.00    -0.003 C 
BRANCH  28  29
HETATM   29  C2  UNL     1      22.609  -0.938  54.495  1.00  0.00    -0.026 C 
HETATM   30  C1  UNL     1      23.458  -1.307  55.437  1.00  0.00     0.031 C 
ENDBRANCH  28  29
ENDBRANCH  26  27
ENDBRANCH  25  26
ENDBRANCH   1  25
TORSDOF 10
ENDMDL
MODEL 7
REMARK VINA RESULT:      -7.7      3.031      6.240
REMARK  10 active torsions:
REMARK  status: ('A' for Active; 'I' for Inactive)
REMARK    1  A    between atoms: C2_2  and  C3_3 
REMARK    2  A    between atoms: C4_4  and  C5_5 
REMARK    3  A    between atoms: C5_5  and  C6_6 
REMARK    4  A    between atoms: C6_6  and  N1_7 
REMARK       I    between atoms: N1_7  and  C7_8 
REMARK       I    between atoms: C7_8  and  N2_10 
REMARK    5  A    between atoms: N2_10  and  C8_11 
REMARK    6  A    between atoms: N2_10  and  C15_19 
REMARK    7  A    between atoms: C8_11  and  C9_12 
REMARK    8  A    between atoms: C12_15  and  O2_16 
REMARK    9  A    between atoms: C15_19  and  C16_20 
REMARK   10  A    between atoms: C23_27  and  O3_28 
ROOT
HETATM    1  N1  UNL     1      25.387   2.853  52.067  1.00  0.00    -0.150 NA
HETATM    2  C7  UNL     1      24.044   2.874  52.513  1.00  0.00     0.352 C 
HETATM    3  O1  UNL     1      24.464   3.464  53.538  1.00  0.00    -0.244 OA
HETATM    4  N2  UNL     1      22.975   2.322  51.758  1.00  0.00    -0.323 N 
ENDROOT
BRANCH   4   5
HETATM    5  C8  UNL     1      23.251   1.714  50.470  1.00  0.00     0.166 C 
BRANCH   5   6
HETATM    6  C9  UNL     1      22.895   2.601  49.346  1.00  0.00    -0.040 A 
HETATM    7  C10 UNL     1      22.117   2.233  48.279  1.00  0.00     0.011 A 
HETATM    8  C11 UNL     1      21.798   3.077  47.248  1.00  0.00     0.037 A 
HETATM    9  C12 UNL     1      22.261   4.378  47.236  1.00  0.00     0.065 A 
HETATM   10  C13 UNL     1      23.059   4.800  48.303  1.00  0.00     0.037 A 
HETATM   11  C14 UNL     1      23.348   3.909  49.311  1.00  0.00     0.011 A 
BRANCH   9  12
HETATM   12  O2  UNL     1      21.963   5.270  46.213  1.00  0.00    -0.361 OA
HETATM   13  H11 UNL     1      21.057   5.119  45.768  1.00  0.00     0.217 HD
ENDBRANCH   9  12
ENDBRANCH   5   6
ENDBRANCH   4   5
BRANCH   4  14
HETATM   14  C15 UNL     1      21.608   2.337  52.226  1.00  0.00     0.169 C 
BRANCH  14  15
HETATM   15  C16 UNL     1      21.167   1.086  52.863  1.00  0.00    -0.006 A 
HETATM   16  C17 UNL     1      22.057   0.402  53.698  1.00  0.00     0.018 A 
HETATM   17  C18 UNL     1      21.809  -0.759  54.363  1.00  0.00    -0.061 A 
HETATM   18  C19 UNL     1      22.855  -1.386  55.225  1.00  0.00     0.048 C 
HETATM   19  C20 UNL     1      20.580  -1.333  54.217  1.00  0.00     0.016 A 
HETATM   20  C21 UNL     1      19.661  -0.717  53.414  1.00  0.00    -0.028 A 
HETATM   21  C22 UNL     1      18.294  -1.319  53.228  1.00  0.00     0.051 C 
HETATM   22  C23 UNL     1      19.942   0.468  52.748  1.00  0.00     0.079 A 
BRANCH  22  23
HETATM   23  O3  UNL     1      19.007   1.091  51.934  1.00  0.00    -0.360 OA
HETATM   24  H24 UNL     1      18.907   2.098  51.926  1.00  0.00     0.217 HD
ENDBRANCH  22  23
ENDBRANCH  14  15
ENDBRANCH   4  14
BRANCH   1  25
HETATM   25  C6  UNL     1      26.024   1.739  52.234  1.00  0.00    -0.011 C 
BRANCH  25  26
HETATM   26  C5  UNL     1      26.937   0.799  52.444  1.00  0.00     0.077 C 
BRANCH  26  27
HETATM   27  C4  UNL     1      26.308  -0.510  52.321  1.00  0.00     0.009 C 
HETATM   28  C3  UNL     1      27.148  -1.387  52.840  1.00  0.00    -0.003 C 
BRANCH  28  29
HETATM   29  C2  UNL     1      28.362  -0.758  53.333  1.00  0.00    -0.026 C 
HETATM   30  C1  UNL     1      29.605  -1.195  53.423  1.00  0.00     0.031 C 
ENDBRANCH  28  29
ENDBRANCH  26  27
ENDBRANCH  25  26
ENDBRANCH   1  25
TORSDOF 10
ENDMDL
MODEL 8
REMARK VINA RESULT:      -7.6      3.127      6.123
REMARK  10 active torsions:
REMARK  status: ('A' for Active; 'I' for Inactive)
REMARK    1  A    between atoms: C2_2  and  C3_3 
REMARK    2  A    between atoms: C4_4  and  C5_5 
REMARK    3  A    between atoms: C5_5  and  C6_6 
REMARK    4  A    between atoms: C6_6  and  N1_7 
REMARK       I    between atoms: N1_7  and  C7_8 
REMARK       I    between atoms: C7_8  and  N2_10 
REMARK    5  A    between atoms: N2_10  and  C8_11 
REMARK    6  A    between atoms: N2_10  and  C15_19 
REMARK    7  A    between atoms: C8_11  and  C9_12 
REMARK    8  A    between atoms: C12_15  and  O2_16 
REMARK    9  A    between atoms: C15_19  and  C16_20 
REMARK   10  A    between atoms: C23_27  and  O3_28 
ROOT
HETATM    1  N1  UNL     1      25.814   1.909  51.014  1.00  0.00    -0.150 NA
HETATM    2  C7  UNL     1      25.186   3.068  51.528  1.00  0.00     0.352 C 
HETATM    3  O1  UNL     1      25.923   3.728  50.756  1.00  0.00    -0.244 OA
HETATM    4  N2  UNL     1      24.170   3.016  52.519  1.00  0.00    -0.323 N 
ENDROOT
BRANCH   4   5
HETATM    5  C8  UNL     1      23.741   1.730  53.033  1.00  0.00     0.166 C 
BRANCH   5   6
HETATM    6  C9  UNL     1      22.462   1.291  52.442  1.00  0.00    -0.040 A 
HETATM    7  C10 UNL     1      22.258   1.063  51.107  1.00  0.00     0.011 A 
HETATM    8  C11 UNL     1      21.061   0.652  50.583  1.00  0.00     0.037 A 
HETATM    9  C12 UNL     1      19.970   0.443  51.403  1.00  0.00     0.065 A 
HETATM   10  C13 UNL     1      20.128   0.662  52.774  1.00  0.00     0.037 A 
HETATM   11  C14 UNL     1      21.354   1.074  53.245  1.00  0.00     0.011 A 
BRANCH   9  12
HETATM   12  O2  UNL     1      18.736   0.026  50.917  1.00  0.00    -0.361 OA
HETATM   13  H11 UNL     1      18.700  -0.955  50.635  1.00  0.00     0.217 HD
ENDBRANCH   9  12
ENDBRANCH   5   6
ENDBRANCH   4   5
BRANCH   4  14
HETATM   14  C15 UNL     1      23.542   4.206  53.047  1.00  0.00     0.169 C 
BRANCH  14  15
HETATM   15  C16 UNL     1      22.817   5.008  52.048  1.00  0.00    -0.006 A 
HETATM   16  C17 UNL     1      21.578   4.551  51.584  1.00  0.00     0.018 A 
HETATM   17  C18 UNL     1      20.781   5.169  50.671  1.00  0.00    -0.061 A 
HETATM   18  C19 UNL     1      19.477   4.567  50.262  1.00  0.00     0.048 C 
HETATM   19  C20 UNL     1      21.209   6.351  50.140  1.00  0.00     0.016 A 
HETATM   20  C21 UNL     1      22.412   6.855  50.549  1.00  0.00    -0.028 A 
HETATM   21  C22 UNL     1      22.918   8.156  49.986  1.00  0.00     0.051 C 
HETATM   22  C23 UNL     1      23.204   6.202  51.484  1.00  0.00     0.079 A 
BRANCH  22  23
HETATM   23  O3  UNL     1      24.425   6.717  51.897  1.00  0.00    -0.360 OA
HETATM   24  H24 UNL     1      24.873   6.387  52.743  1.00  0.00     0.217 HD
ENDBRANCH  22  23
ENDBRANCH  14  15
ENDBRANCH   4  14
BRANCH   1  25
HETATM   25  C6  UNL     1      26.747   1.396  51.749  1.00  0.00    -0.011 C 
BRANCH  25  26
HETATM   26  C5  UNL     1      27.454   0.686  52.620  1.00  0.00     0.077 C 
BRANCH  26  27
HETATM   27  C4  UNL     1      28.048   1.588  53.598  1.00  0.00     0.009 C 
HETATM   28  C3  UNL     1      28.953   0.889  54.261  1.00  0.00    -0.003 C 
BRANCH  28  29
HETATM   29  C2  UNL     1      29.033  -0.485  53.796  1.00  0.00    -0.026 C 
HETATM   30  C1  UNL     1      30.039  -1.339  53.744  1.00  0.00     0.031 C 
ENDBRANCH  28  29
ENDBRANCH  26  27
ENDBRANCH  25  26
ENDBRANCH   1  25
TORSDOF 10
ENDMDL
MODEL 9
REMARK VINA RESULT:      -7.6      1.990      2.759
REMARK  10 active torsions:
REMARK  status: ('A' for Active; 'I' for Inactive)
REMARK    1  A    between atoms: C2_2  and  C3_3 
REMARK    2  A    between atoms: C4_4  and  C5_5 
REMARK    3  A    between atoms: C5_5  and  C6_6 
REMARK    4  A    between atoms: C6_6  and  N1_7 
REMARK       I    between atoms: N1_7  and  C7_8 
REMARK       I    between atoms: C7_8  and  N2_10 
REMARK    5  A    between atoms: N2_10  and  C8_11 
REMARK    6  A    between atoms: N2_10  and  C15_19 
REMARK    7  A    between atoms: C8_11  and  C9_12 
REMARK    8  A    between atoms: C12_15  and  O2_16 
REMARK    9  A    between atoms: C15_19  and  C16_20 
REMARK   10  A    between atoms: C23_27  and  O3_28 
ROOT
HETATM    1  N1  UNL     1      23.028   4.096  49.512  1.00  0.00    -0.150 NA
HETATM    2  C7  UNL     1      22.496   3.865  50.802  1.00  0.00     0.352 C 
HETATM    3  O1  UNL     1      21.807   4.900  50.630  1.00  0.00    -0.244 OA
HETATM    4  N2  UNL     1      22.887   2.763  51.608  1.00  0.00    -0.323 N 
ENDROOT
BRANCH   4   5
HETATM    5  C8  UNL     1      23.867   1.821  51.102  1.00  0.00     0.166 C 
BRANCH   5   6
HETATM    6  C9  UNL     1      24.881   1.471  52.116  1.00  0.00    -0.040 A 
HETATM    7  C10 UNL     1      25.127   0.200  52.565  1.00  0.00     0.011 A 
HETATM    8  C11 UNL     1      26.076  -0.100  53.506  1.00  0.00     0.037 A 
HETATM    9  C12 UNL     1      26.854   0.897  54.062  1.00  0.00     0.065 A 
HETATM   10  C13 UNL     1      26.641   2.210  53.635  1.00  0.00     0.037 A 
HETATM   11  C14 UNL     1      25.673   2.453  52.687  1.00  0.00     0.011 A 
BRANCH   9  12
HETATM   12  O2  UNL     1      27.830   0.641  55.018  1.00  0.00    -0.361 OA
HETATM   13  H11 UNL     1      28.092  -0.342  55.105  1.00  0.00     0.217 HD
ENDBRANCH   9  12
ENDBRANCH   5   6
ENDBRANCH   4   5
BRANCH   4  14
HETATM   14  C15 UNL     1      22.347   2.541  52.931  1.00  0.00     0.169 C 
BRANCH  14  15
HETATM   15  C16 UNL     1      21.463   1.370  53.040  1.00  0.00    -0.006 A 
HETATM   16  C17 UNL     1      21.884   0.273  53.800  1.00  0.00     0.018 A 
HETATM   17  C18 UNL     1      21.191  -0.880  54.006  1.00  0.00    -0.061 A 
HETATM   18  C19 UNL     1      21.762  -1.977  54.842  1.00  0.00     0.048 C 
HETATM   19  C20 UNL     1      19.963  -1.003  53.424  1.00  0.00     0.016 A 
HETATM   20  C21 UNL     1      19.490   0.032  52.667  1.00  0.00    -0.028 A 
HETATM   21  C22 UNL     1      18.139  -0.067  52.009  1.00  0.00     0.051 C 
HETATM   22  C23 UNL     1      20.219   1.197  52.475  1.00  0.00     0.079 A 
BRANCH  22  23
HETATM   23  O3  UNL     1      19.736   2.246  51.705  1.00  0.00    -0.360 OA
HETATM   24  H24 UNL     1      20.364   2.914  51.277  1.00  0.00     0.217 HD
ENDBRANCH  22  23
ENDBRANCH  14  15
ENDBRANCH   4  14
BRANCH   1  25
HETATM   25  C6  UNL     1      24.194   4.655  49.470  1.00  0.00    -0.011 C 
BRANCH  25  26
HETATM   26  C5  UNL     1      25.430   5.031  49.163  1.00  0.00     0.077 C 
BRANCH  26  27
HETATM   27  C4  UNL     1      26.330   3.898  49.340  1.00  0.00     0.009 C 
HETATM   28  C3  UNL     1      27.527   4.298  48.951  1.00  0.00    -0.003 C 
BRANCH  28  29
HETATM   29  C2  UNL     1      27.524   5.679  48.500  1.00  0.00    -0.026 C 
HETATM   30  C1  UNL     1      28.480   6.447  48.010  1.00  0.00     0.031 C 
ENDBRANCH  28  29
ENDBRANCH  26  27
ENDBRANCH  25  26
ENDBRANCH   1  25
TORSDOF 10
ENDMDL
