MODEL 1
REMARK VINA RESULT:      -9.2      0.000      0.000
REMARK  4 active torsions:
REMARK  status: ('A' for Active; 'I' for Inactive)
REMARK    1  A    between atoms: C4_5  and  C5_6 
REMARK    2  A    between atoms: N2_8  and  S1_9 
REMARK    3  A    between atoms: S1_9  and  C6_10 
REMARK    4  A    between atoms: C9_16  and  C10_17 
ROOT
HETATM    1  C5  UNL     1      25.099   3.342  50.704  1.00  0.00     0.068 C 
HETATM    2  N1  UNL     1      25.711   2.422  51.370  1.00  0.00    -0.169 NA
HETATM    3  N2  UNL     1      24.849   1.514  51.963  1.00  0.00    -0.226 N 
HETATM    4  C9  UNL     1      23.711   1.556  51.060  1.00  0.00     0.157 C 
HETATM    5  C16 UNL     1      23.641   3.065  50.832  1.00  0.00     0.095 C 
ENDROOT
BRANCH   3   6
HETATM    6  S1  UNL     1      25.356   0.697  53.450  1.00  0.00     0.047 SA
BRANCH   6   7
HETATM    7  C6  UNL     1      27.110   1.022  53.704  1.00  0.00     0.203 C 
HETATM    8  N3  UNL     1      27.962   0.053  53.719  1.00  0.00    -0.262 NA
HETATM    9  C7  UNL     1      29.360   0.371  53.927  1.00  0.00     0.180 C 
HETATM   10  C8  UNL     1      29.416   1.649  54.736  1.00  0.00     0.223 C 
HETATM   11  O1  UNL     1      28.748   2.685  54.083  1.00  0.00    -0.277 OA
HETATM   12  N4  UNL     1      27.448   2.394  53.879  1.00  0.00    -0.242 N 
HETATM   13  H7  UNL     1      26.740   3.160  53.855  1.00  0.00     0.196 HD
ENDBRANCH   6   7
ENDBRANCH   3   6
BRANCH   4  14
HETATM   14  C10 UNL     1      22.466   1.032  51.642  1.00  0.00    -0.032 A 
HETATM   15  C11 UNL     1      21.462   0.778  50.723  1.00  0.00     0.011 A 
HETATM   16  C12 UNL     1      20.241   0.286  51.120  1.00  0.00     0.019 A 
HETATM   17  C13 UNL     1      20.000   0.037  52.452  1.00  0.00     0.011 A 
HETATM   18 BR1  UNL     1      18.332  -0.646  53.083  1.00  0.00    -0.051 Br
HETATM   19  C14 UNL     1      20.981   0.280  53.390  1.00  0.00     0.019 A 
HETATM   20  C15 UNL     1      22.209   0.776  52.986  1.00  0.00     0.011 A 
ENDBRANCH   4  14
BRANCH   1  21
HETATM   21  C4  UNL     1      25.684   4.469  49.947  1.00  0.00    -0.010 A 
HETATM   22  C3  UNL     1      25.044   5.691  49.922  1.00  0.00     0.015 A 
HETATM   23  C2  UNL     1      25.646   6.699  49.196  1.00  0.00     0.024 A 
HETATM   24  C1  UNL     1      26.831   6.520  48.518  1.00  0.00     0.034 A 
HETATM   25 CL1  UNL     1      27.612   7.789  47.589  1.00  0.00    -0.084 Cl
HETATM   26  C18 UNL     1      27.446   5.289  48.561  1.00  0.00     0.024 A 
HETATM   27  C17 UNL     1      26.876   4.258  49.276  1.00  0.00     0.015 A 
ENDBRANCH   1  21
TORSDOF 4
ENDMDL
MODEL 2
REMARK VINA RESULT:      -8.9      4.597      7.671
REMARK  4 active torsions:
REMARK  status: ('A' for Active; 'I' for Inactive)
REMARK    1  A    between atoms: C4_5  and  C5_6 
REMARK    2  A    between atoms: N2_8  and  S1_9 
REMARK    3  A    between atoms: S1_9  and  C6_10 
REMARK    4  A    between atoms: C9_16  and  C10_17 
ROOT
HETATM    1  C5  UNL     1      21.365   0.918  52.346  1.00  0.00     0.068 C 
HETATM    2  N1  UNL     1      21.676   2.168  52.276  1.00  0.00    -0.169 NA
HETATM    3  N2  UNL     1      23.037   2.398  52.389  1.00  0.00    -0.226 N 
HETATM    4  C9  UNL     1      23.590   1.162  51.862  1.00  0.00     0.157 C 
HETATM    5  C16 UNL     1      22.640   0.169  52.531  1.00  0.00     0.095 C 
ENDROOT
BRANCH   3   6
HETATM    6  S1  UNL     1      23.591   3.940  53.061  1.00  0.00     0.047 SA
BRANCH   6   7
HETATM    7  C6  UNL     1      24.029   5.029  51.694  1.00  0.00     0.203 C 
HETATM    8  N3  UNL     1      24.172   4.559  50.500  1.00  0.00    -0.262 NA
HETATM    9  C7  UNL     1      24.524   5.480  49.438  1.00  0.00     0.180 C 
HETATM   10  C8  UNL     1      25.291   6.622  50.067  1.00  0.00     0.223 C 
HETATM   11  O1  UNL     1      24.534   7.249  51.057  1.00  0.00    -0.277 OA
HETATM   12  N4  UNL     1      24.195   6.399  52.046  1.00  0.00    -0.242 N 
HETATM   13  H7  UNL     1      24.067   6.754  53.018  1.00  0.00     0.196 HD
ENDBRANCH   6   7
ENDBRANCH   3   6
BRANCH   4  14
HETATM   14  C10 UNL     1      24.990   0.922  52.244  1.00  0.00    -0.032 A 
HETATM   15  C11 UNL     1      25.173  -0.130  53.126  1.00  0.00     0.011 A 
HETATM   16  C12 UNL     1      26.428  -0.473  53.574  1.00  0.00     0.019 A 
HETATM   17  C13 UNL     1      27.528   0.235  53.145  1.00  0.00     0.011 A 
HETATM   18 BR1  UNL     1      29.302  -0.179  53.720  1.00  0.00    -0.051 Br
HETATM   19  C14 UNL     1      27.376   1.287  52.266  1.00  0.00     0.019 A 
HETATM   20  C15 UNL     1      26.111   1.629  51.819  1.00  0.00     0.011 A 
ENDBRANCH   4  14
BRANCH   1  21
HETATM   21  C4  UNL     1      20.025   0.300  52.265  1.00  0.00    -0.010 A 
HETATM   22  C3  UNL     1      19.225   0.526  51.163  1.00  0.00     0.015 A 
HETATM   23  C2  UNL     1      17.986  -0.082  51.152  1.00  0.00     0.024 A 
HETATM   24  C1  UNL     1      17.543  -0.882  52.181  1.00  0.00     0.034 A 
HETATM   25 CL1  UNL     1      15.970  -1.665  52.186  1.00  0.00    -0.084 Cl
HETATM   26  C18 UNL     1      18.362  -1.090  53.268  1.00  0.00     0.024 A 
HETATM   27  C17 UNL     1      19.607  -0.500  53.314  1.00  0.00     0.015 A 
ENDBRANCH   1  21
TORSDOF 4
ENDMDL
MODEL 3
REMARK VINA RESULT:      -8.8      3.137      5.495
REMARK  4 active torsions:
REMARK  status: ('A' for Active; 'I' for Inactive)
REMARK    1  A    between atoms: C4_5  and  C5_6 
REMARK    2  A    between atoms: N2_8  and  S1_9 
REMARK    3  A    between atoms: S1_9  and  C6_10 
REMARK    4  A    between atoms: C9_16  and  C10_17 
ROOT
HETATM    1  C5  UNL     1      25.048   1.410  52.840  1.00  0.00     0.068 C 
HETATM    2  N1  UNL     1      24.575   2.584  53.091  1.00  0.00    -0.169 NA
HETATM    3  N2  UNL     1      23.252   2.732  52.707  1.00  0.00    -0.226 N 
HETATM    4  C9  UNL     1      22.758   1.371  52.820  1.00  0.00     0.157 C 
HETATM    5  C16 UNL     1      23.946   0.632  52.207  1.00  0.00     0.095 C 
ENDROOT
BRANCH   3   6
HETATM    6  S1  UNL     1      22.668   4.342  52.256  1.00  0.00     0.047 SA
BRANCH   6   7
HETATM    7  C6  UNL     1      23.982   5.193  51.364  1.00  0.00     0.203 C 
HETATM    8  N3  UNL     1      24.005   6.481  51.299  1.00  0.00    -0.262 NA
HETATM    9  C7  UNL     1      25.085   7.113  50.569  1.00  0.00     0.180 C 
HETATM   10  C8  UNL     1      25.542   6.138  49.507  1.00  0.00     0.223 C 
HETATM   11  O1  UNL     1      25.948   4.930  50.076  1.00  0.00    -0.277 OA
HETATM   12  N4  UNL     1      24.951   4.339  50.763  1.00  0.00    -0.242 N 
HETATM   13  H7  UNL     1      24.914   3.299  50.837  1.00  0.00     0.196 HD
ENDBRANCH   6   7
ENDBRANCH   3   6
BRANCH   4  14
HETATM   14  C10 UNL     1      21.515   1.122  52.074  1.00  0.00    -0.032 A 
HETATM   15  C11 UNL     1      20.438   0.743  52.859  1.00  0.00     0.011 A 
HETATM   16  C12 UNL     1      19.210   0.476  52.302  1.00  0.00     0.019 A 
HETATM   17  C13 UNL     1      19.034   0.585  50.941  1.00  0.00     0.011 A 
HETATM   18 BR1  UNL     1      17.360   0.232  50.091  1.00  0.00    -0.051 Br
HETATM   19  C14 UNL     1      20.087   0.961  50.134  1.00  0.00     0.019 A 
HETATM   20  C15 UNL     1      21.323   1.228  50.700  1.00  0.00     0.011 A 
ENDBRANCH   4  14
BRANCH   1  21
HETATM   21  C4  UNL     1      26.405   0.891  53.109  1.00  0.00    -0.010 A 
HETATM   22  C3  UNL     1      27.389   1.738  53.576  1.00  0.00     0.015 A 
HETATM   23  C2  UNL     1      28.634   1.188  53.807  1.00  0.00     0.024 A 
HETATM   24  C1  UNL     1      28.908  -0.143  53.589  1.00  0.00     0.034 A 
HETATM   25 CL1  UNL     1      30.484  -0.863  53.875  1.00  0.00    -0.084 Cl
HETATM   26  C18 UNL     1      27.907  -0.965  53.122  1.00  0.00     0.024 A 
HETATM   27  C17 UNL     1      26.650  -0.451  52.880  1.00  0.00     0.015 A 
ENDBRANCH   1  21
TORSDOF 4
ENDMDL
MODEL 4
REMARK VINA RESULT:      -8.5      4.017      6.099
REMARK  4 active torsions:
REMARK  status: ('A' for Active; 'I' for Inactive)
REMARK    1  A    between atoms: C4_5  and  C5_6 
REMARK    2  A    between atoms: N2_8  and  S1_9 
REMARK    3  A    between atoms: S1_9  and  C6_10 
REMARK    4  A    between atoms: C9_16  and  C10_17 
ROOT
HETATM    1  C5  UNL     1      24.261   0.920  52.945  1.00  0.00     0.068 C 
HETATM    2  N1  UNL     1      23.788   2.119  52.997  1.00  0.00    -0.169 NA
HETATM    3  N2  UNL     1      22.426   2.179  52.750  1.00  0.00    -0.226 N 
HETATM    4  C9  UNL     1      21.986   0.871  53.207  1.00  0.00     0.157 C 
HETATM    5  C16 UNL     1      23.116   0.022  52.626  1.00  0.00     0.095 C 
ENDROOT
BRANCH   3   6
HETATM    6  S1  UNL     1      21.749   3.654  52.042  1.00  0.00     0.047 SA
BRANCH   6   7
HETATM    7  C6  UNL     1      22.103   3.649  50.275  1.00  0.00     0.203 C 
HETATM    8  N3  UNL     1      21.503   4.473  49.483  1.00  0.00    -0.262 NA
HETATM    9  C7  UNL     1      21.826   4.425  48.071  1.00  0.00     0.180 C 
HETATM   10  C8  UNL     1      22.266   3.012  47.757  1.00  0.00     0.223 C 
HETATM   11  O1  UNL     1      23.357   2.639  48.544  1.00  0.00    -0.277 OA
HETATM   12  N4  UNL     1      23.067   2.687  49.859  1.00  0.00    -0.242 N 
HETATM   13  H7  UNL     1      23.544   2.037  50.521  1.00  0.00     0.196 HD
ENDBRANCH   6   7
ENDBRANCH   3   6
BRANCH   4  14
HETATM   14  C10 UNL     1      20.673   0.467  52.683  1.00  0.00    -0.032 A 
HETATM   15  C11 UNL     1      19.941  -0.348  53.532  1.00  0.00     0.011 A 
HETATM   16  C12 UNL     1      18.694  -0.807  53.177  1.00  0.00     0.019 A 
HETATM   17  C13 UNL     1      18.152  -0.457  51.962  1.00  0.00     0.011 A 
HETATM   18 BR1  UNL     1      16.427  -1.053  51.397  1.00  0.00    -0.051 Br
HETATM   19  C14 UNL     1      18.857   0.353  51.097  1.00  0.00     0.019 A 
HETATM   20  C15 UNL     1      20.113   0.812  51.457  1.00  0.00     0.011 A 
ENDBRANCH   4  14
BRANCH   1  21
HETATM   21  C4  UNL     1      25.654   0.474  53.154  1.00  0.00    -0.010 A 
HETATM   22  C3  UNL     1      26.552   1.293  53.808  1.00  0.00     0.015 A 
HETATM   23  C2  UNL     1      27.836   0.814  53.970  1.00  0.00     0.024 A 
HETATM   24  C1  UNL     1      28.230  -0.422  53.509  1.00  0.00     0.034 A 
HETATM   25 CL1  UNL     1      29.859  -1.049  53.704  1.00  0.00    -0.084 Cl
HETATM   26  C18 UNL     1      27.313  -1.218  52.860  1.00  0.00     0.024 A 
HETATM   27  C17 UNL     1      26.021  -0.773  52.680  1.00  0.00     0.015 A 
ENDBRANCH   1  21
TORSDOF 4
ENDMDL
MODEL 5
REMARK VINA RESULT:      -8.4      4.052      5.988
REMARK  4 active torsions:
REMARK  status: ('A' for Active; 'I' for Inactive)
REMARK    1  A    between atoms: C4_5  and  C5_6 
REMARK    2  A    between atoms: N2_8  and  S1_9 
REMARK    3  A    between atoms: S1_9  and  C6_10 
REMARK    4  A    between atoms: C9_16  and  C10_17 
ROOT
HETATM    1  C5  UNL     1      24.831   4.135  49.430  1.00  0.00     0.068 C 
HETATM    2  N1  UNL     1      23.680   4.007  48.862  1.00  0.00    -0.169 NA
HETATM    3  N2  UNL     1      22.824   3.162  49.550  1.00  0.00    -0.226 N 
HETATM    4  C9  UNL     1      23.293   3.316  50.917  1.00  0.00     0.157 C 
HETATM    5  C16 UNL     1      24.799   3.291  50.658  1.00  0.00     0.095 C 
ENDROOT
BRANCH   3   6
HETATM    6  S1  UNL     1      21.586   2.277  48.644  1.00  0.00     0.047 SA
BRANCH   6   7
HETATM    7  C6  UNL     1      21.209   3.204  47.146  1.00  0.00     0.203 C 
HETATM    8  N3  UNL     1      20.070   3.794  47.008  1.00  0.00    -0.262 NA
HETATM    9  C7  UNL     1      19.820   4.525  45.782  1.00  0.00     0.180 C 
HETATM   10  C8  UNL     1      20.652   3.882  44.695  1.00  0.00     0.223 C 
HETATM   11  O1  UNL     1      22.007   3.891  45.029  1.00  0.00    -0.277 OA
HETATM   12  N4  UNL     1      22.248   3.219  46.171  1.00  0.00    -0.242 N 
HETATM   13  H7  UNL     1      23.164   2.739  46.311  1.00  0.00     0.196 HD
ENDBRANCH   6   7
ENDBRANCH   3   6
BRANCH   4  14
HETATM   14  C10 UNL     1      22.875   2.231  51.817  1.00  0.00    -0.032 A 
HETATM   15  C11 UNL     1      23.860   1.294  52.086  1.00  0.00     0.011 A 
HETATM   16  C12 UNL     1      23.615   0.222  52.911  1.00  0.00     0.019 A 
HETATM   17  C13 UNL     1      22.374   0.066  53.487  1.00  0.00     0.011 A 
HETATM   18 BR1  UNL     1      21.957  -1.396  54.644  1.00  0.00    -0.051 Br
HETATM   19  C14 UNL     1      21.375   0.982  53.238  1.00  0.00     0.019 A 
HETATM   20  C15 UNL     1      21.625   2.060  52.406  1.00  0.00     0.011 A 
ENDBRANCH   4  14
BRANCH   1  21
HETATM   21  C4  UNL     1      25.985   4.947  48.991  1.00  0.00    -0.010 A 
HETATM   22  C3  UNL     1      27.243   4.382  48.925  1.00  0.00     0.015 A 
HETATM   23  C2  UNL     1      28.275   5.196  48.506  1.00  0.00     0.024 A 
HETATM   24  C1  UNL     1      28.087   6.516  48.163  1.00  0.00     0.034 A 
HETATM   25 CL1  UNL     1      29.387   7.569  47.628  1.00  0.00    -0.084 Cl
HETATM   26  C18 UNL     1      26.821   7.053  48.238  1.00  0.00     0.024 A 
HETATM   27  C17 UNL     1      25.765   6.270  48.653  1.00  0.00     0.015 A 
ENDBRANCH   1  21
TORSDOF 4
ENDMDL
MODEL 6
REMARK VINA RESULT:      -8.3      4.156      7.085
REMARK  4 active torsions:
REMARK  status: ('A' for Active; 'I' for Inactive)
REMARK    1  A    between atoms: C4_5  and  C5_6 
REMARK    2  A    between atoms: N2_8  and  S1_9 
REMARK    3  A    between atoms: S1_9  and  C6_10 
REMARK    4  A    between atoms: C9_16  and  C10_17 
ROOT
HETATM    1  C5  UNL     1      25.728   1.695  51.696  1.00  0.00     0.068 C 
HETATM    2  N1  UNL     1      24.453   1.573  51.855  1.00  0.00    -0.169 NA
HETATM    3  N2  UNL     1      23.724   2.511  51.142  1.00  0.00    -0.226 N 
HETATM    4  C9  UNL     1      24.607   2.780  50.020  1.00  0.00     0.157 C 
HETATM    5  C16 UNL     1      25.936   2.843  50.770  1.00  0.00     0.095 C 
ENDROOT
BRANCH   3   6
HETATM    6  S1  UNL     1      22.142   3.014  51.760  1.00  0.00     0.047 SA
BRANCH   6   7
HETATM    7  C6  UNL     1      21.204   1.536  52.186  1.00  0.00     0.203 C 
HETATM    8  N3  UNL     1      20.003   1.371  51.743  1.00  0.00    -0.262 NA
HETATM    9  C7  UNL     1      19.294   0.163  52.116  1.00  0.00     0.180 C 
HETATM   10  C8  UNL     1      19.846  -0.290  53.451  1.00  0.00     0.223 C 
HETATM   11  O1  UNL     1      21.222  -0.507  53.376  1.00  0.00    -0.277 OA
HETATM   12  N4  UNL     1      21.889   0.609  53.023  1.00  0.00    -0.242 N 
HETATM   13  H7  UNL     1      22.864   0.763  53.361  1.00  0.00     0.196 HD
ENDBRANCH   6   7
ENDBRANCH   3   6
BRANCH   4  14
HETATM   14  C10 UNL     1      24.314   4.039  49.318  1.00  0.00    -0.032 A 
HETATM   15  C11 UNL     1      25.279   5.021  49.471  1.00  0.00     0.011 A 
HETATM   16  C12 UNL     1      25.142   6.252  48.873  1.00  0.00     0.019 A 
HETATM   17  C13 UNL     1      24.032   6.525  48.107  1.00  0.00     0.011 A 
HETATM   18 BR1  UNL     1      23.769   8.209  47.245  1.00  0.00    -0.051 Br
HETATM   19  C14 UNL     1      23.055   5.567  47.937  1.00  0.00     0.019 A 
HETATM   20  C15 UNL     1      23.196   4.329  48.541  1.00  0.00     0.011 A 
ENDBRANCH   4  14
BRANCH   1  21
HETATM   21  C4  UNL     1      26.808   0.881  52.292  1.00  0.00    -0.010 A 
HETATM   22  C3  UNL     1      26.726  -0.497  52.274  1.00  0.00     0.015 A 
HETATM   23  C2  UNL     1      27.769  -1.195  52.848  1.00  0.00     0.024 A 
HETATM   24  C1  UNL     1      28.855  -0.571  53.418  1.00  0.00     0.034 A 
HETATM   25 CL1  UNL     1      30.193  -1.440  54.152  1.00  0.00    -0.084 Cl
HETATM   26  C18 UNL     1      28.911   0.805  53.421  1.00  0.00     0.024 A 
HETATM   27  C17 UNL     1      27.887   1.537  52.857  1.00  0.00     0.015 A 
ENDBRANCH   1  21
TORSDOF 4
ENDMDL
MODEL 7
REMARK VINA RESULT:      -8.2      3.891      5.641
REMARK  4 active torsions:
REMARK  status: ('A' for Active; 'I' for Inactive)
REMARK    1  A    between atoms: C4_5  and  C5_6 
REMARK    2  A    between atoms: N2_8  and  S1_9 
REMARK    3  A    between atoms: S1_9  and  C6_10 
REMARK    4  A    between atoms: C9_16  and  C10_17 
ROOT
HETATM    1  C5  UNL     1      25.184   4.106  49.506  1.00  0.00     0.068 C 
HETATM    2  N1  UNL     1      24.028   3.903  48.969  1.00  0.00    -0.169 NA
HETATM    3  N2  UNL     1      23.262   2.978  49.659  1.00  0.00    -0.226 N 
HETATM    4  C9  UNL     1      23.761   3.133  51.015  1.00  0.00     0.157 C 
HETATM    5  C16 UNL     1      25.255   3.231  50.711  1.00  0.00     0.095 C 
ENDROOT
BRANCH   3   6
HETATM    6  S1  UNL     1      22.067   2.023  48.766  1.00  0.00     0.047 SA
BRANCH   6   7
HETATM    7  C6  UNL     1      20.425   2.645  49.173  1.00  0.00     0.203 C 
HETATM    8  N3  UNL     1      20.286   3.730  49.859  1.00  0.00    -0.262 NA
HETATM    9  C7  UNL     1      18.943   4.185  50.157  1.00  0.00     0.180 C 
HETATM   10  C8  UNL     1      18.049   2.964  50.187  1.00  0.00     0.223 C 
HETATM   11  O1  UNL     1      18.098   2.277  48.974  1.00  0.00    -0.277 OA
HETATM   12  N4  UNL     1      19.345   1.856  48.685  1.00  0.00    -0.242 N 
HETATM   13  H7  UNL     1      19.485   0.986  48.126  1.00  0.00     0.196 HD
ENDBRANCH   6   7
ENDBRANCH   3   6
BRANCH   4  14
HETATM   14  C10 UNL     1      23.455   1.997  51.897  1.00  0.00    -0.032 A 
HETATM   15  C11 UNL     1      22.163   1.987  52.395  1.00  0.00     0.011 A 
HETATM   16  C12 UNL     1      21.732   0.986  53.235  1.00  0.00     0.019 A 
HETATM   17  C13 UNL     1      22.590  -0.028  53.593  1.00  0.00     0.011 A 
HETATM   18 BR1  UNL     1      22.068  -1.452  54.754  1.00  0.00    -0.051 Br
HETATM   19  C14 UNL     1      23.882  -0.045  53.113  1.00  0.00     0.019 A 
HETATM   20  C15 UNL     1      24.312   0.965  52.268  1.00  0.00     0.011 A 
ENDBRANCH   4  14
BRANCH   1  21
HETATM   21  C4  UNL     1      26.258   5.014  49.055  1.00  0.00    -0.010 A 
HETATM   22  C3  UNL     1      27.518   4.517  48.790  1.00  0.00     0.015 A 
HETATM   23  C2  UNL     1      28.474   5.421  48.372  1.00  0.00     0.024 A 
HETATM   24  C1  UNL     1      28.209   6.763  48.218  1.00  0.00     0.034 A 
HETATM   25 CL1  UNL     1      29.410   7.930  47.687  1.00  0.00    -0.084 Cl
HETATM   26  C18 UNL     1      26.942   7.231  48.490  1.00  0.00     0.024 A 
HETATM   27  C17 UNL     1      25.961   6.358  48.909  1.00  0.00     0.015 A 
ENDBRANCH   1  21
TORSDOF 4
ENDMDL
MODEL 8
REMARK VINA RESULT:      -8.2      3.765      6.034
REMARK  4 active torsions:
REMARK  status: ('A' for Active; 'I' for Inactive)
REMARK    1  A    between atoms: C4_5  and  C5_6 
REMARK    2  A    between atoms: N2_8  and  S1_9 
REMARK    3  A    between atoms: S1_9  and  C6_10 
REMARK    4  A    between atoms: C9_16  and  C10_17 
ROOT
HETATM    1  C5  UNL     1      25.157   2.039  52.281  1.00  0.00     0.068 C 
HETATM    2  N1  UNL     1      24.588   3.026  52.887  1.00  0.00    -0.169 NA
HETATM    3  N2  UNL     1      23.454   3.484  52.236  1.00  0.00    -0.226 N 
HETATM    4  C9  UNL     1      22.997   2.282  51.559  1.00  0.00     0.157 C 
HETATM    5  C16 UNL     1      24.344   1.758  51.064  1.00  0.00     0.095 C 
ENDROOT
BRANCH   3   6
HETATM    6  S1  UNL     1      22.989   5.182  52.420  1.00  0.00     0.047 SA
BRANCH   6   7
HETATM    7  C6  UNL     1      23.986   6.168  51.288  1.00  0.00     0.203 C 
HETATM    8  N3  UNL     1      23.677   7.396  51.040  1.00  0.00    -0.262 NA
HETATM    9  C7  UNL     1      24.513   8.143  50.122  1.00  0.00     0.180 C 
HETATM   10  C8  UNL     1      25.135   7.147  49.167  1.00  0.00     0.223 C 
HETATM   11  O1  UNL     1      25.869   6.182  49.857  1.00  0.00    -0.277 OA
HETATM   12  N4  UNL     1      25.100   5.487  50.719  1.00  0.00    -0.242 N 
HETATM   13  H7  UNL     1      25.332   4.495  50.942  1.00  0.00     0.196 HD
ENDBRANCH   6   7
ENDBRANCH   3   6
BRANCH   4  14
HETATM   14  C10 UNL     1      22.068   2.538  50.448  1.00  0.00    -0.032 A 
HETATM   15  C11 UNL     1      22.681   2.818  49.238  1.00  0.00     0.011 A 
HETATM   16  C12 UNL     1      21.941   3.079  48.108  1.00  0.00     0.019 A 
HETATM   17  C13 UNL     1      20.566   3.065  48.169  1.00  0.00     0.011 A 
HETATM   18 BR1  UNL     1      19.469   3.417  46.646  1.00  0.00    -0.051 Br
HETATM   19  C14 UNL     1      19.928   2.789  49.360  1.00  0.00     0.019 A 
HETATM   20  C15 UNL     1      20.677   2.528  50.495  1.00  0.00     0.011 A 
ENDBRANCH   4  14
BRANCH   1  21
HETATM   21  C4  UNL     1      26.374   1.299  52.676  1.00  0.00    -0.010 A 
HETATM   22  C3  UNL     1      27.436   1.970  53.246  1.00  0.00     0.015 A 
HETATM   23  C2  UNL     1      28.541   1.218  53.591  1.00  0.00     0.024 A 
HETATM   24  C1  UNL     1      28.606  -0.142  53.388  1.00  0.00     0.034 A 
HETATM   25 CL1  UNL     1      30.001  -1.117  53.820  1.00  0.00    -0.084 Cl
HETATM   26  C18 UNL     1      27.530  -0.785  52.817  1.00  0.00     0.024 A 
HETATM   27  C17 UNL     1      26.409  -0.067  52.459  1.00  0.00     0.015 A 
ENDBRANCH   1  21
TORSDOF 4
ENDMDL
MODEL 9
REMARK VINA RESULT:      -8.1      3.217      5.741
REMARK  4 active torsions:
REMARK  status: ('A' for Active; 'I' for Inactive)
REMARK    1  A    between atoms: C4_5  and  C5_6 
REMARK    2  A    between atoms: N2_8  and  S1_9 
REMARK    3  A    between atoms: S1_9  and  C6_10 
REMARK    4  A    between atoms: C9_16  and  C10_17 
ROOT
HETATM    1  C5  UNL     1      25.193   0.214  52.800  1.00  0.00     0.068 C 
HETATM    2  N1  UNL     1      24.769   1.173  52.048  1.00  0.00    -0.169 NA
HETATM    3  N2  UNL     1      23.389   1.200  51.927  1.00  0.00    -0.226 N 
HETATM    4  C9  UNL     1      22.971   0.611  53.188  1.00  0.00     0.157 C 
HETATM    5  C16 UNL     1      23.988  -0.526  53.270  1.00  0.00     0.095 C 
ENDROOT
BRANCH   3   6
HETATM    6  S1  UNL     1      22.673   1.867  50.451  1.00  0.00     0.047 SA
BRANCH   6   7
HETATM    7  C6  UNL     1      23.383   3.497  50.163  1.00  0.00     0.203 C 
HETATM    8  N3  UNL     1      23.604   3.914  48.962  1.00  0.00    -0.262 NA
HETATM    9  C7  UNL     1      24.177   5.234  48.787  1.00  0.00     0.180 C 
HETATM   10  C8  UNL     1      24.994   5.538  50.024  1.00  0.00     0.223 C 
HETATM   11  O1  UNL     1      24.207   5.469  51.174  1.00  0.00    -0.277 OA
HETATM   12  N4  UNL     1      23.664   4.247  51.340  1.00  0.00    -0.242 N 
HETATM   13  H7  UNL     1      23.469   3.890  52.301  1.00  0.00     0.196 HD
ENDBRANCH   6   7
ENDBRANCH   3   6
BRANCH   4  14
HETATM   14  C10 UNL     1      21.589   0.109  53.183  1.00  0.00    -0.032 A 
HETATM   15  C11 UNL     1      20.695   0.890  52.469  1.00  0.00     0.011 A 
HETATM   16  C12 UNL     1      19.366   0.547  52.376  1.00  0.00     0.019 A 
HETATM   17  C13 UNL     1      18.905  -0.591  52.998  1.00  0.00     0.011 A 
HETATM   18 BR1  UNL     1      17.076  -1.135  52.915  1.00  0.00    -0.051 Br
HETATM   19  C14 UNL     1      19.771  -1.389  53.714  1.00  0.00     0.019 A 
HETATM   20  C15 UNL     1      21.108  -1.039  53.806  1.00  0.00     0.011 A 
ENDBRANCH   4  14
BRANCH   1  21
HETATM   21  C4  UNL     1      26.587  -0.124  53.157  1.00  0.00    -0.010 A 
HETATM   22  C3  UNL     1      27.346   0.762  53.894  1.00  0.00     0.015 A 
HETATM   23  C2  UNL     1      28.640   0.383  54.192  1.00  0.00     0.024 A 
HETATM   24  C1  UNL     1      29.173  -0.819  53.785  1.00  0.00     0.034 A 
HETATM   25 CL1  UNL     1      30.815  -1.320  54.153  1.00  0.00    -0.084 Cl
HETATM   26  C18 UNL     1      28.392  -1.683  53.051  1.00  0.00     0.024 A 
HETATM   27  C17 UNL     1      27.095  -1.339  52.734  1.00  0.00     0.015 A 
ENDBRANCH   1  21
TORSDOF 4
ENDMDL
