MODEL 1
REMARK VINA RESULT:      -7.7      0.000      0.000
REMARK  3 active torsions:
REMARK  status: ('A' for Active; 'I' for Inactive)
REMARK    1  A    between atoms: C2_2  and  C3_3 
REMARK    2  A    between atoms: N1_7  and  C7_8 
REMARK    3  A    between atoms: C7_8  and  C8_9 
ROOT
HETATM    1  C3  UNL     1      20.443   0.374  52.801  1.00  0.00     0.023 C 
HETATM    2  C4  UNL     1      21.393  -0.482  53.225  1.00  0.00     0.004 C 
HETATM    3  C5  UNL     1      22.512  -0.180  54.121  1.00  0.00     0.050 C 
HETATM    4  C6  UNL     1      23.896  -0.257  53.572  1.00  0.00     0.141 C 
HETATM    5  N1  UNL     1      24.169   0.714  52.584  1.00  0.00    -0.344 N 
HETATM    6  N2  UNL     1      23.329   1.830  52.667  1.00  0.00    -0.241 NA
HETATM    7  C15 UNL     1      22.379   1.671  51.571  1.00  0.00     0.130 C 
HETATM    8  C16 UNL     1      21.070   2.316  51.952  1.00  0.00     0.136 C 
HETATM    9  N3  UNL     1      20.597   1.722  53.224  1.00  0.00    -0.389 N 
HETATM   10  H17 UNL     1      23.823   2.738  52.495  1.00  0.00     0.146 HD
HETATM   11  H22 UNL     1      20.288   1.547  54.196  1.00  0.00     0.159 HD
ENDROOT
BRANCH   5  12
HETATM   12  C7  UNL     1      25.396   0.834  51.963  1.00  0.00     0.171 C 
BRANCH  12  13
HETATM   13  C8  UNL     1      26.623   0.572  52.753  1.00  0.00    -0.055 C 
HETATM   14  C9  UNL     1      27.283   1.711  53.038  1.00  0.00     0.005 C 
HETATM   15  C10 UNL     1      28.510   2.003  53.768  1.00  0.00     0.000 C 
HETATM   16  C11 UNL     1      29.480   1.115  53.993  1.00  0.00     0.003 C 
HETATM   17  C12 UNL     1      29.570  -0.292  53.596  1.00  0.00     0.038 C 
HETATM   18  C13 UNL     1      28.487  -0.987  53.263  1.00  0.00     0.098 C 
HETATM   19  F1  UNL     1      28.915  -2.258  52.947  1.00  0.00    -0.211 F 
HETATM   20  C14 UNL     1      27.027  -0.798  53.145  1.00  0.00     0.106 C 
ENDBRANCH  12  13
ENDBRANCH   5  12
BRANCH   1  21
HETATM   21  C2  UNL     1      19.378  -0.023  51.929  1.00  0.00     0.018 C 
HETATM   22  C1  UNL     1      18.288  -0.626  52.335  1.00  0.00     0.013 C 
ENDBRANCH   1  21
TORSDOF 3
ENDMDL
MODEL 2
REMARK VINA RESULT:      -7.6      2.486      3.180
REMARK  3 active torsions:
REMARK  status: ('A' for Active; 'I' for Inactive)
REMARK    1  A    between atoms: C2_2  and  C3_3 
REMARK    2  A    between atoms: N1_7  and  C7_8 
REMARK    3  A    between atoms: C7_8  and  C8_9 
ROOT
HETATM    1  C3  UNL     1      22.933   2.551  50.760  1.00  0.00     0.023 C 
HETATM    2  C4  UNL     1      23.212   2.164  52.021  1.00  0.00     0.004 C 
HETATM    3  C5  UNL     1      23.938   2.930  53.036  1.00  0.00     0.050 C 
HETATM    4  C6  UNL     1      25.259   2.415  53.498  1.00  0.00     0.141 C 
HETATM    5  N1  UNL     1      26.254   2.428  52.496  1.00  0.00    -0.344 N 
HETATM    6  N2  UNL     1      25.988   3.345  51.473  1.00  0.00    -0.241 NA
HETATM    7  C15 UNL     1      25.536   2.536  50.347  1.00  0.00     0.130 C 
HETATM    8  C16 UNL     1      24.575   3.343  49.510  1.00  0.00     0.136 C 
HETATM    9  N3  UNL     1      23.466   3.811  50.373  1.00  0.00    -0.389 N 
HETATM   10  H17 UNL     1      26.840   3.858  51.140  1.00  0.00     0.146 HD
HETATM   11  H22 UNL     1      22.778   4.367  50.909  1.00  0.00     0.159 HD
ENDROOT
BRANCH   5  12
HETATM   12  C7  UNL     1      27.553   2.017  52.718  1.00  0.00     0.171 C 
BRANCH  12  13
HETATM   13  C8  UNL     1      27.803   0.590  53.031  1.00  0.00    -0.055 C 
HETATM   14  C9  UNL     1      29.081   0.379  53.400  1.00  0.00     0.005 C 
HETATM   15  C10 UNL     1      29.827  -0.808  53.800  1.00  0.00     0.000 C 
HETATM   16  C11 UNL     1      29.467  -2.057  53.501  1.00  0.00     0.003 C 
HETATM   17  C12 UNL     1      28.309  -2.541  52.745  1.00  0.00     0.038 C 
HETATM   18  C13 UNL     1      27.233  -1.782  52.567  1.00  0.00     0.098 C 
HETATM   19  F1  UNL     1      26.343  -2.527  51.824  1.00  0.00    -0.211 F 
HETATM   20  C14 UNL     1      26.740  -0.436  52.922  1.00  0.00     0.106 C 
ENDBRANCH  12  13
ENDBRANCH   5  12
BRANCH   1  21
HETATM   21  C2  UNL     1      22.204   1.730  49.842  1.00  0.00     0.018 C 
HETATM   22  C1  UNL     1      21.431   0.737  50.204  1.00  0.00     0.013 C 
ENDBRANCH   1  21
TORSDOF 3
ENDMDL
MODEL 3
REMARK VINA RESULT:      -7.6      3.083      3.896
REMARK  3 active torsions:
REMARK  status: ('A' for Active; 'I' for Inactive)
REMARK    1  A    between atoms: C2_2  and  C3_3 
REMARK    2  A    between atoms: N1_7  and  C7_8 
REMARK    3  A    between atoms: C7_8  and  C8_9 
ROOT
HETATM    1  C3  UNL     1      22.909   5.491  51.669  1.00  0.00     0.023 C 
HETATM    2  C4  UNL     1      22.814   4.399  52.451  1.00  0.00     0.004 C 
HETATM    3  C5  UNL     1      23.848   3.858  53.337  1.00  0.00     0.050 C 
HETATM    4  C6  UNL     1      24.428   2.523  53.013  1.00  0.00     0.141 C 
HETATM    5  N1  UNL     1      25.170   2.505  51.812  1.00  0.00    -0.344 N 
HETATM    6  N2  UNL     1      25.639   3.769  51.439  1.00  0.00    -0.241 NA
HETATM    7  C15 UNL     1      24.775   4.186  50.341  1.00  0.00     0.130 C 
HETATM    8  C16 UNL     1      24.664   5.690  50.339  1.00  0.00     0.136 C 
HETATM    9  N3  UNL     1      24.176   6.135  51.665  1.00  0.00    -0.389 N 
HETATM   10  H17 UNL     1      26.614   3.757  51.053  1.00  0.00     0.146 HD
HETATM   11  H22 UNL     1      24.060   6.568  52.597  1.00  0.00     0.159 HD
ENDROOT
BRANCH   5  12
HETATM   12  C7  UNL     1      25.812   1.378  51.339  1.00  0.00     0.171 C 
BRANCH  12  13
HETATM   13  C8  UNL     1      26.719   0.640  52.250  1.00  0.00    -0.055 C 
HETATM   14  C9  UNL     1      27.740   1.413  52.667  1.00  0.00     0.005 C 
HETATM   15  C10 UNL     1      28.879   1.182  53.547  1.00  0.00     0.000 C 
HETATM   16  C11 UNL     1      29.374  -0.022  53.834  1.00  0.00     0.003 C 
HETATM   17  C12 UNL     1      28.940  -1.345  53.377  1.00  0.00     0.038 C 
HETATM   18  C13 UNL     1      27.720  -1.542  52.886  1.00  0.00     0.098 C 
HETATM   19  F1  UNL     1      27.638  -2.876  52.555  1.00  0.00    -0.211 F 
HETATM   20  C14 UNL     1      26.487  -0.777  52.612  1.00  0.00     0.106 C 
ENDBRANCH  12  13
ENDBRANCH   5  12
BRANCH   1  21
HETATM   21  C2  UNL     1      21.833   5.947  50.842  1.00  0.00     0.018 C 
HETATM   22  C1  UNL     1      21.473   7.202  50.737  1.00  0.00     0.013 C 
ENDBRANCH   1  21
TORSDOF 3
ENDMDL
MODEL 4
REMARK VINA RESULT:      -7.6      2.897      4.283
REMARK  3 active torsions:
REMARK  status: ('A' for Active; 'I' for Inactive)
REMARK    1  A    between atoms: C2_2  and  C3_3 
REMARK    2  A    between atoms: N1_7  and  C7_8 
REMARK    3  A    between atoms: C7_8  and  C8_9 
ROOT
HETATM    1  C3  UNL     1      24.030   4.582  50.247  1.00  0.00     0.023 C 
HETATM    2  C4  UNL     1      25.351   4.314  50.245  1.00  0.00     0.004 C 
HETATM    3  C5  UNL     1      25.980   2.994  50.161  1.00  0.00     0.050 C 
HETATM    4  C6  UNL     1      26.752   2.504  51.339  1.00  0.00     0.141 C 
HETATM    5  N1  UNL     1      25.955   2.267  52.480  1.00  0.00    -0.344 N 
HETATM    6  N2  UNL     1      24.608   2.045  52.171  1.00  0.00    -0.241 NA
HETATM    7  C15 UNL     1      23.927   3.282  52.537  1.00  0.00     0.130 C 
HETATM    8  C16 UNL     1      22.726   3.470  51.644  1.00  0.00     0.136 C 
HETATM    9  N3  UNL     1      23.173   3.448  50.231  1.00  0.00    -0.389 N 
HETATM   10  H17 UNL     1      24.167   1.289  52.746  1.00  0.00     0.146 HD
HETATM   11  H22 UNL     1      23.332   3.230  49.232  1.00  0.00     0.159 HD
ENDROOT
BRANCH   5  12
HETATM   12  C7  UNL     1      26.465   1.788  53.671  1.00  0.00     0.171 C 
BRANCH  12  13
HETATM   13  C8  UNL     1      27.149   0.473  53.673  1.00  0.00    -0.055 C 
HETATM   14  C9  UNL     1      28.460   0.595  53.953  1.00  0.00     0.005 C 
HETATM   15  C10 UNL     1      29.553  -0.362  54.077  1.00  0.00     0.000 C 
HETATM   16  C11 UNL     1      29.548  -1.581  53.536  1.00  0.00     0.003 C 
HETATM   17  C12 UNL     1      28.519  -2.243  52.730  1.00  0.00     0.038 C 
HETATM   18  C13 UNL     1      27.256  -1.827  52.744  1.00  0.00     0.098 C 
HETATM   19  F1  UNL     1      26.559  -2.653  51.890  1.00  0.00    -0.211 F 
HETATM   20  C14 UNL     1      26.426  -0.788  53.386  1.00  0.00     0.106 C 
ENDBRANCH  12  13
ENDBRANCH   5  12
BRANCH   1  21
HETATM   21  C2  UNL     1      23.511   5.914  50.322  1.00  0.00     0.018 C 
HETATM   22  C1  UNL     1      24.146   6.915  50.878  1.00  0.00     0.013 C 
ENDBRANCH   1  21
TORSDOF 3
ENDMDL
MODEL 5
REMARK VINA RESULT:      -7.5      2.238      6.750
REMARK  3 active torsions:
REMARK  status: ('A' for Active; 'I' for Inactive)
REMARK    1  A    between atoms: C2_2  and  C3_3 
REMARK    2  A    between atoms: N1_7  and  C7_8 
REMARK    3  A    between atoms: C7_8  and  C8_9 
ROOT
HETATM    1  C3  UNL     1      27.844   0.028  52.903  1.00  0.00     0.023 C 
HETATM    2  C4  UNL     1      27.111   0.337  51.815  1.00  0.00     0.004 C 
HETATM    3  C5  UNL     1      26.622   1.663  51.431  1.00  0.00     0.050 C 
HETATM    4  C6  UNL     1      25.150   1.901  51.435  1.00  0.00     0.141 C 
HETATM    5  N1  UNL     1      24.571   1.845  52.721  1.00  0.00    -0.344 N 
HETATM    6  N2  UNL     1      25.492   2.083  53.747  1.00  0.00    -0.241 NA
HETATM    7  C15 UNL     1      25.757   0.773  54.330  1.00  0.00     0.130 C 
HETATM    8  C16 UNL     1      27.162   0.749  54.879  1.00  0.00     0.136 C 
HETATM    9  N3  UNL     1      28.105   1.105  53.793  1.00  0.00    -0.389 N 
HETATM   10  H17 UNL     1      25.110   2.675  54.523  1.00  0.00     0.146 HD
HETATM   11  H22 UNL     1      28.819   1.549  53.190  1.00  0.00     0.159 HD
ENDROOT
BRANCH   5  12
HETATM   12  C7  UNL     1      23.227   2.061  52.953  1.00  0.00     0.171 C 
BRANCH  12  13
HETATM   13  C8  UNL     1      22.325   0.888  53.050  1.00  0.00    -0.055 C 
HETATM   14  C9  UNL     1      21.050   1.217  52.768  1.00  0.00     0.005 C 
HETATM   15  C10 UNL     1      19.805   0.460  52.720  1.00  0.00     0.000 C 
HETATM   16  C11 UNL     1      19.608  -0.700  53.349  1.00  0.00     0.003 C 
HETATM   17  C12 UNL     1      20.520  -1.472  54.196  1.00  0.00     0.038 C 
HETATM   18  C13 UNL     1      21.835  -1.286  54.145  1.00  0.00     0.098 C 
HETATM   19  F1  UNL     1      22.393  -2.157  55.055  1.00  0.00    -0.211 F 
HETATM   20  C14 UNL     1      22.822  -0.455  53.426  1.00  0.00     0.106 C 
ENDBRANCH  12  13
ENDBRANCH   5  12
BRANCH   1  21
HETATM   21  C2  UNL     1      28.285  -1.304  53.187  1.00  0.00     0.018 C 
HETATM   22  C1  UNL     1      29.540  -1.640  53.347  1.00  0.00     0.013 C 
ENDBRANCH   1  21
TORSDOF 3
ENDMDL
MODEL 6
REMARK VINA RESULT:      -7.5      3.978      6.812
REMARK  3 active torsions:
REMARK  status: ('A' for Active; 'I' for Inactive)
REMARK    1  A    between atoms: C2_2  and  C3_3 
REMARK    2  A    between atoms: N1_7  and  C7_8 
REMARK    3  A    between atoms: C7_8  and  C8_9 
ROOT
HETATM    1  C3  UNL     1      28.195   0.140  53.840  1.00  0.00     0.023 C 
HETATM    2  C4  UNL     1      27.742   1.406  53.930  1.00  0.00     0.004 C 
HETATM    3  C5  UNL     1      26.385   1.832  54.277  1.00  0.00     0.050 C 
HETATM    4  C6  UNL     1      25.574   2.524  53.234  1.00  0.00     0.141 C 
HETATM    5  N1  UNL     1      25.245   1.702  52.134  1.00  0.00    -0.344 N 
HETATM    6  N2  UNL     1      25.284   0.337  52.440  1.00  0.00    -0.241 NA
HETATM    7  C15 UNL     1      26.515  -0.153  51.830  1.00  0.00     0.130 C 
HETATM    8  C16 UNL     1      27.042  -1.313  52.638  1.00  0.00     0.136 C 
HETATM    9  N3  UNL     1      27.222  -0.876  54.042  1.00  0.00    -0.389 N 
HETATM   10  H17 UNL     1      24.505  -0.212  52.005  1.00  0.00     0.146 HD
HETATM   11  H22 UNL     1      27.175  -0.753  55.068  1.00  0.00     0.159 HD
ENDROOT
BRANCH   5  12
HETATM   12  C7  UNL     1      24.480   2.136  51.070  1.00  0.00     0.171 C 
BRANCH  12  13
HETATM   13  C8  UNL     1      24.896   3.363  50.349  1.00  0.00    -0.055 C 
HETATM   14  C9  UNL     1      26.120   3.228  49.804  1.00  0.00     0.005 C 
HETATM   15  C10 UNL     1      26.970   4.112  49.015  1.00  0.00     0.000 C 
HETATM   16  C11 UNL     1      26.855   5.440  48.992  1.00  0.00     0.003 C 
HETATM   17  C12 UNL     1      25.914   6.310  49.702  1.00  0.00     0.038 C 
HETATM   18  C13 UNL     1      24.773   5.838  50.195  1.00  0.00     0.098 C 
HETATM   19  F1  UNL     1      24.131   6.901  50.792  1.00  0.00    -0.211 F 
HETATM   20  C14 UNL     1      24.032   4.564  50.280  1.00  0.00     0.106 C 
ENDBRANCH  12  13
ENDBRANCH   5  12
BRANCH   1  21
HETATM   21  C2  UNL     1      29.550  -0.175  53.502  1.00  0.00     0.018 C 
HETATM   22  C1  UNL     1      30.167  -1.262  53.893  1.00  0.00     0.013 C 
ENDBRANCH   1  21
TORSDOF 3
ENDMDL
MODEL 7
REMARK VINA RESULT:      -7.4      2.950      4.576
REMARK  3 active torsions:
REMARK  status: ('A' for Active; 'I' for Inactive)
REMARK    1  A    between atoms: C2_2  and  C3_3 
REMARK    2  A    between atoms: N1_7  and  C7_8 
REMARK    3  A    between atoms: C7_8  and  C8_9 
ROOT
HETATM    1  C3  UNL     1      23.926   4.974  49.281  1.00  0.00     0.023 C 
HETATM    2  C4  UNL     1      23.960   3.634  49.138  1.00  0.00     0.004 C 
HETATM    3  C5  UNL     1      22.895   2.687  49.475  1.00  0.00     0.050 C 
HETATM    4  C6  UNL     1      23.137   1.717  50.581  1.00  0.00     0.141 C 
HETATM    5  N1  UNL     1      23.266   2.324  51.849  1.00  0.00    -0.344 N 
HETATM    6  N2  UNL     1      22.662   3.585  51.916  1.00  0.00    -0.241 NA
HETATM    7  C15 UNL     1      23.767   4.537  51.875  1.00  0.00     0.130 C 
HETATM    8  C16 UNL     1      23.297   5.815  51.226  1.00  0.00     0.136 C 
HETATM    9  N3  UNL     1      22.752   5.498  49.886  1.00  0.00    -0.389 N 
HETATM   10  H17 UNL     1      22.160   3.760  52.819  1.00  0.00     0.146 HD
HETATM   11  H22 UNL     1      22.156   5.371  49.049  1.00  0.00     0.159 HD
ENDROOT
BRANCH   5  12
HETATM   12  C7  UNL     1      23.470   1.608  53.011  1.00  0.00     0.171 C 
BRANCH  12  13
HETATM   13  C8  UNL     1      24.808   1.021  53.260  1.00  0.00    -0.055 C 
HETATM   14  C9  UNL     1      25.743   1.974  53.436  1.00  0.00     0.005 C 
HETATM   15  C10 UNL     1      27.176   1.937  53.704  1.00  0.00     0.000 C 
HETATM   16  C11 UNL     1      27.962   0.892  53.438  1.00  0.00     0.003 C 
HETATM   17  C12 UNL     1      27.625  -0.406  52.849  1.00  0.00     0.038 C 
HETATM   18  C13 UNL     1      26.375  -0.859  52.842  1.00  0.00     0.098 C 
HETATM   19  F1  UNL     1      26.405  -2.089  52.222  1.00  0.00    -0.211 F 
HETATM   20  C14 UNL     1      25.031  -0.443  53.288  1.00  0.00     0.106 C 
ENDBRANCH  12  13
ENDBRANCH   5  12
BRANCH   1  21
HETATM   21  C2  UNL     1      25.021   5.819  48.911  1.00  0.00     0.018 C 
HETATM   22  C1  UNL     1      26.277   5.450  48.955  1.00  0.00     0.013 C 
ENDBRANCH   1  21
TORSDOF 3
ENDMDL
MODEL 8
REMARK VINA RESULT:      -7.3      1.646      2.052
REMARK  3 active torsions:
REMARK  status: ('A' for Active; 'I' for Inactive)
REMARK    1  A    between atoms: C2_2  and  C3_3 
REMARK    2  A    between atoms: N1_7  and  C7_8 
REMARK    3  A    between atoms: C7_8  and  C8_9 
ROOT
HETATM    1  C3  UNL     1      20.429   0.788  52.593  1.00  0.00     0.023 C 
HETATM    2  C4  UNL     1      20.782  -0.222  53.412  1.00  0.00     0.004 C 
HETATM    3  C5  UNL     1      21.730  -0.160  54.526  1.00  0.00     0.050 C 
HETATM    4  C6  UNL     1      22.996  -0.940  54.421  1.00  0.00     0.141 C 
HETATM    5  N1  UNL     1      23.861  -0.481  53.404  1.00  0.00    -0.344 N 
HETATM    6  N2  UNL     1      23.631   0.853  53.051  1.00  0.00    -0.241 NA
HETATM    7  C15 UNL     1      22.933   0.792  51.771  1.00  0.00     0.130 C 
HETATM    8  C16 UNL     1      22.024   1.989  51.644  1.00  0.00     0.136 C 
HETATM    9  N3  UNL     1      21.107   2.019  52.807  1.00  0.00    -0.389 N 
HETATM   10  H17 UNL     1      24.510   1.397  52.877  1.00  0.00     0.146 HD
HETATM   11  H22 UNL     1      20.581   2.263  53.664  1.00  0.00     0.159 HD
ENDROOT
BRANCH   5  12
HETATM   12  C7  UNL     1      25.095  -1.046  53.151  1.00  0.00     0.171 C 
BRANCH  12  13
HETATM   13  C8  UNL     1      26.287  -0.166  53.119  1.00  0.00    -0.055 C 
HETATM   14  C9  UNL     1      26.998  -0.250  54.260  1.00  0.00     0.005 C 
HETATM   15  C10 UNL     1      28.221   0.389  54.729  1.00  0.00     0.000 C 
HETATM   16  C11 UNL     1      28.704   1.534  54.244  1.00  0.00     0.003 C 
HETATM   17  C12 UNL     1      28.175   2.398  53.185  1.00  0.00     0.038 C 
HETATM   18  C13 UNL     1      27.307   1.941  52.289  1.00  0.00     0.098 C 
HETATM   19  F1  UNL     1      27.016   2.993  51.448  1.00  0.00    -0.211 F 
HETATM   20  C14 UNL     1      26.601   0.689  51.950  1.00  0.00     0.106 C 
ENDBRANCH  12  13
ENDBRANCH   5  12
BRANCH   1  21
HETATM   21  C2  UNL     1      19.480   0.629  51.532  1.00  0.00     0.018 C 
HETATM   22  C1  UNL     1      18.415  -0.128  51.612  1.00  0.00     0.013 C 
ENDBRANCH   1  21
TORSDOF 3
ENDMDL
MODEL 9
REMARK VINA RESULT:      -7.3      4.070      5.643
REMARK  3 active torsions:
REMARK  status: ('A' for Active; 'I' for Inactive)
REMARK    1  A    between atoms: C2_2  and  C3_3 
REMARK    2  A    between atoms: N1_7  and  C7_8 
REMARK    3  A    between atoms: C7_8  and  C8_9 
ROOT
HETATM    1  C3  UNL     1      22.955   7.507  50.534  1.00  0.00     0.023 C 
HETATM    2  C4  UNL     1      22.085   6.497  50.728  1.00  0.00     0.004 C 
HETATM    3  C5  UNL     1      22.098   5.521  51.820  1.00  0.00     0.050 C 
HETATM    4  C6  UNL     1      22.362   4.092  51.487  1.00  0.00     0.141 C 
HETATM    5  N1  UNL     1      23.666   3.856  50.998  1.00  0.00    -0.344 N 
HETATM    6  N2  UNL     1      24.582   4.842  51.383  1.00  0.00    -0.241 NA
HETATM    7  C15 UNL     1      24.793   5.650  50.187  1.00  0.00     0.130 C 
HETATM    8  C16 UNL     1      25.120   7.065  50.596  1.00  0.00     0.136 C 
HETATM    9  N3  UNL     1      24.031   7.577  51.460  1.00  0.00    -0.389 N 
HETATM   10  H17 UNL     1      25.522   4.460  51.646  1.00  0.00     0.146 HD
HETATM   11  H22 UNL     1      23.458   7.953  52.235  1.00  0.00     0.159 HD
ENDROOT
BRANCH   5  12
HETATM   12  C7  UNL     1      24.127   2.601  50.653  1.00  0.00     0.171 C 
BRANCH  12  13
HETATM   13  C8  UNL     1      24.719   1.745  51.709  1.00  0.00    -0.055 C 
HETATM   14  C9  UNL     1      26.054   1.637  51.570  1.00  0.00     0.005 C 
HETATM   15  C10 UNL     1      27.086   0.933  52.321  1.00  0.00     0.000 C 
HETATM   16  C11 UNL     1      26.855  -0.110  53.120  1.00  0.00     0.003 C 
HETATM   17  C12 UNL     1      25.592  -0.782  53.438  1.00  0.00     0.038 C 
HETATM   18  C13 UNL     1      24.422  -0.183  53.245  1.00  0.00     0.098 C 
HETATM   19  F1  UNL     1      23.451  -1.077  53.639  1.00  0.00    -0.211 F 
HETATM   20  C14 UNL     1      23.890   1.105  52.756  1.00  0.00     0.106 C 
ENDBRANCH  12  13
ENDBRANCH   5  12
BRANCH   1  21
HETATM   21  C2  UNL     1      22.850   8.419  49.435  1.00  0.00     0.018 C 
HETATM   22  C1  UNL     1      21.808   9.181  49.214  1.00  0.00     0.013 C 
ENDBRANCH   1  21
TORSDOF 3
ENDMDL
