MODEL 1
REMARK VINA RESULT:      -7.9      0.000      0.000
REMARK  6 active torsions:
REMARK  status: ('A' for Active; 'I' for Inactive)
REMARK    1  A    between atoms: C4_5  and  N1_6 
REMARK    2  A    between atoms: N1_6  and  C5_7 
REMARK    3  A    between atoms: C7_12  and  N4_13 
REMARK    4  A    between atoms: N4_13  and  C8_14 
REMARK    5  A    between atoms: C8_14  and  C9_15 
REMARK    6  A    between atoms: C9_15  and  N5_16 
ROOT
HETATM    1  C5  UNL     1      26.421   0.019  54.377  1.00  0.00     0.765 C 
HETATM    2  N2  UNL     1      27.467  -0.358  55.023  1.00  0.00     0.070 NA
HETATM    3  O1  UNL     1      28.741   0.168  55.047  1.00  0.00    -0.192 OA
HETATM    4  C6  UNL     1      29.374   0.870  54.007  1.00  0.00     0.306 C 
HETATM    5  N3  UNL     1      28.774   1.567  53.106  1.00  0.00    -0.048 NA
HETATM    6  C7  UNL     1      27.354   1.778  52.969  1.00  0.00     0.740 C 
HETATM    7  N6  UNL     1      26.364   1.131  53.502  1.00  0.00     0.132 NA
ENDROOT
BRANCH   6   8
HETATM    8  N4  UNL     1      26.993   2.864  52.124  1.00  0.00    -0.220 N 
HETATM    9  H5  UNL     1      27.167   3.832  52.521  1.00  0.00     0.177 HD
BRANCH   8  10
HETATM   10  C8  UNL     1      26.430   2.615  50.816  1.00  0.00     0.168 C 
BRANCH  10  11
HETATM   11  C9  UNL     1      25.251   3.587  50.678  1.00  0.00     0.292 C 
BRANCH  11  12
HETATM   12  N5  UNL     1      24.122   2.912  51.244  1.00  0.00     0.094 N 
HETATM   13  C10 UNL     1      23.170   2.536  50.250  1.00  0.00     0.298 C 
HETATM   14  C11 UNL     1      21.755   2.970  50.559  1.00  0.00     0.198 C 
HETATM   15  O2  UNL     1      21.719   4.305  50.951  1.00  0.00    -0.388 OA
HETATM   16  C12 UNL     1      22.460   4.537  52.099  1.00  0.00     0.198 C 
HETATM   17  C13 UNL     1      23.528   3.538  52.379  1.00  0.00     0.298 C 
ENDBRANCH  11  12
ENDBRANCH  10  11
ENDBRANCH   8  10
ENDBRANCH   6   8
BRANCH   1  18
HETATM   18  N1  UNL     1      25.311  -0.799  54.635  1.00  0.00    -0.186 N 
HETATM   19  H3  UNL     1      25.592  -1.594  55.265  1.00  0.00     0.184 HD
BRANCH  18  20
HETATM   20  C4  UNL     1      23.978  -0.690  54.194  1.00  0.00     0.049 A 
HETATM   21  C3  UNL     1      23.000  -1.158  55.052  1.00  0.00     0.032 A 
HETATM   22  C2  UNL     1      21.651  -1.136  54.789  1.00  0.00     0.026 A 
HETATM   23  C1  UNL     1      21.234  -0.618  53.602  1.00  0.00     0.034 A 
HETATM   24 CL1  UNL     1      19.520  -0.579  53.241  1.00  0.00    -0.084 Cl
HETATM   25  C15 UNL     1      22.144  -0.132  52.694  1.00  0.00     0.026 A 
HETATM   26  C14 UNL     1      23.474  -0.193  53.035  1.00  0.00     0.032 A 
ENDBRANCH  18  20
ENDBRANCH   1  18
TORSDOF 6
ENDMDL
MODEL 2
REMARK VINA RESULT:      -7.4      3.071      5.339
REMARK  6 active torsions:
REMARK  status: ('A' for Active; 'I' for Inactive)
REMARK    1  A    between atoms: C4_5  and  N1_6 
REMARK    2  A    between atoms: N1_6  and  C5_7 
REMARK    3  A    between atoms: C7_12  and  N4_13 
REMARK    4  A    between atoms: N4_13  and  C8_14 
REMARK    5  A    between atoms: C8_14  and  C9_15 
REMARK    6  A    between atoms: C9_15  and  N5_16 
ROOT
HETATM    1  C5  UNL     1      21.323  -0.486  54.390  1.00  0.00     0.765 C 
HETATM    2  N2  UNL     1      21.741  -1.313  55.282  1.00  0.00     0.070 NA
HETATM    3  O1  UNL     1      23.011  -1.532  55.772  1.00  0.00    -0.192 OA
HETATM    4  C6  UNL     1      24.218  -1.336  55.080  1.00  0.00     0.306 C 
HETATM    5  N3  UNL     1      24.402  -0.489  54.129  1.00  0.00    -0.048 NA
HETATM    6  C7  UNL     1      23.433   0.426  53.577  1.00  0.00     0.740 C 
HETATM    7  N6  UNL     1      22.140   0.431  53.685  1.00  0.00     0.132 NA
ENDROOT
BRANCH   6   8
HETATM    8  N4  UNL     1      23.987   1.482  52.801  1.00  0.00    -0.220 N 
HETATM    9  H5  UNL     1      23.436   2.388  52.799  1.00  0.00     0.177 HD
BRANCH   8  10
HETATM   10  C8  UNL     1      25.224   1.286  52.080  1.00  0.00     0.168 C 
BRANCH  10  11
HETATM   11  C9  UNL     1      26.302   2.014  52.895  1.00  0.00     0.292 C 
BRANCH  11  12
HETATM   12  N5  UNL     1      27.521   1.305  52.649  1.00  0.00     0.094 N 
HETATM   13  C10 UNL     1      27.288  -0.074  52.362  1.00  0.00     0.298 C 
HETATM   14  C11 UNL     1      28.118  -1.023  53.197  1.00  0.00     0.198 C 
HETATM   15  O2  UNL     1      28.072  -0.672  54.544  1.00  0.00    -0.388 OA
HETATM   16  C12 UNL     1      28.576   0.598  54.774  1.00  0.00     0.198 C 
HETATM   17  C13 UNL     1      28.564   1.510  53.598  1.00  0.00     0.298 C 
ENDBRANCH  11  12
ENDBRANCH  10  11
ENDBRANCH   8  10
ENDBRANCH   6   8
BRANCH   1  18
HETATM   18  N1  UNL     1      19.939  -0.582  54.182  1.00  0.00    -0.186 N 
HETATM   19  H3  UNL     1      19.455  -0.801  55.090  1.00  0.00     0.184 HD
BRANCH  18  20
HETATM   20  C4  UNL     1      19.183  -0.428  53.004  1.00  0.00     0.049 A 
HETATM   21  C3  UNL     1      17.929  -1.010  52.990  1.00  0.00     0.032 A 
HETATM   22  C2  UNL     1      17.056  -0.965  51.929  1.00  0.00     0.026 A 
HETATM   23  C1  UNL     1      17.440  -0.302  50.806  1.00  0.00     0.034 A 
HETATM   24 CL1  UNL     1      16.346  -0.230  49.439  1.00  0.00    -0.084 Cl
HETATM   25  C15 UNL     1      18.672   0.305  50.739  1.00  0.00     0.026 A 
HETATM   26  C14 UNL     1      19.484   0.211  51.844  1.00  0.00     0.032 A 
ENDBRANCH  18  20
ENDBRANCH   1  18
TORSDOF 6
ENDMDL
MODEL 3
REMARK VINA RESULT:      -7.3      1.399      1.984
REMARK  6 active torsions:
REMARK  status: ('A' for Active; 'I' for Inactive)
REMARK    1  A    between atoms: C4_5  and  N1_6 
REMARK    2  A    between atoms: N1_6  and  C5_7 
REMARK    3  A    between atoms: C7_12  and  N4_13 
REMARK    4  A    between atoms: N4_13  and  C8_14 
REMARK    5  A    between atoms: C8_14  and  C9_15 
REMARK    6  A    between atoms: C9_15  and  N5_16 
ROOT
HETATM    1  C5  UNL     1      26.197  -0.086  54.363  1.00  0.00     0.765 C 
HETATM    2  N2  UNL     1      27.250  -0.461  54.999  1.00  0.00     0.070 NA
HETATM    3  O1  UNL     1      28.517   0.081  55.029  1.00  0.00    -0.192 OA
HETATM    4  C6  UNL     1      29.138   0.809  53.999  1.00  0.00     0.306 C 
HETATM    5  N3  UNL     1      28.527   1.513  53.113  1.00  0.00    -0.048 NA
HETATM    6  C7  UNL     1      27.103   1.708  52.983  1.00  0.00     0.740 C 
HETATM    7  N6  UNL     1      26.123   1.040  53.507  1.00  0.00     0.132 NA
ENDROOT
BRANCH   6   8
HETATM    8  N4  UNL     1      26.726   2.804  52.158  1.00  0.00    -0.220 N 
HETATM    9  H5  UNL     1      27.139   3.744  52.425  1.00  0.00     0.177 HD
BRANCH   8  10
HETATM   10  C8  UNL     1      25.835   2.601  51.038  1.00  0.00     0.168 C 
BRANCH  10  11
HETATM   11  C9  UNL     1      24.513   3.277  51.428  1.00  0.00     0.292 C 
BRANCH  11  12
HETATM   12  N5  UNL     1      24.180   4.138  50.334  1.00  0.00     0.094 N 
HETATM   13  C10 UNL     1      25.307   4.402  49.499  1.00  0.00     0.298 C 
HETATM   14  C11 UNL     1      25.541   5.872  49.233  1.00  0.00     0.198 C 
HETATM   15  O2  UNL     1      25.482   6.608  50.413  1.00  0.00    -0.388 OA
HETATM   16  C12 UNL     1      24.244   6.514  51.029  1.00  0.00     0.198 C 
HETATM   17  C13 UNL     1      23.443   5.312  50.668  1.00  0.00     0.298 C 
ENDBRANCH  11  12
ENDBRANCH  10  11
ENDBRANCH   8  10
ENDBRANCH   6   8
BRANCH   1  18
HETATM   18  N1  UNL     1      25.098  -0.923  54.610  1.00  0.00    -0.186 N 
HETATM   19  H3  UNL     1      25.410  -1.772  55.148  1.00  0.00     0.184 HD
BRANCH  18  20
HETATM   20  C4  UNL     1      23.743  -0.773  54.258  1.00  0.00     0.049 A 
HETATM   21  C3  UNL     1      23.479  -0.112  53.073  1.00  0.00     0.032 A 
HETATM   22  C2  UNL     1      22.221   0.129  52.574  1.00  0.00     0.026 A 
HETATM   23  C1  UNL     1      21.150  -0.312  53.286  1.00  0.00     0.034 A 
HETATM   24 CL1  UNL     1      19.535  -0.018  52.672  1.00  0.00    -0.084 Cl
HETATM   25  C15 UNL     1      21.327  -0.978  54.475  1.00  0.00     0.026 A 
HETATM   26  C14 UNL     1      22.618  -1.176  54.903  1.00  0.00     0.032 A 
ENDBRANCH  18  20
ENDBRANCH   1  18
TORSDOF 6
ENDMDL
MODEL 4
REMARK VINA RESULT:      -7.2      3.365      5.421
REMARK  6 active torsions:
REMARK  status: ('A' for Active; 'I' for Inactive)
REMARK    1  A    between atoms: C4_5  and  N1_6 
REMARK    2  A    between atoms: N1_6  and  C5_7 
REMARK    3  A    between atoms: C7_12  and  N4_13 
REMARK    4  A    between atoms: N4_13  and  C8_14 
REMARK    5  A    between atoms: C8_14  and  C9_15 
REMARK    6  A    between atoms: C9_15  and  N5_16 
ROOT
HETATM    1  C5  UNL     1      23.298  -0.011  53.467  1.00  0.00     0.765 C 
HETATM    2  N2  UNL     1      23.165  -0.869  54.416  1.00  0.00     0.070 NA
HETATM    3  O1  UNL     1      22.120  -1.716  54.715  1.00  0.00    -0.192 OA
HETATM    4  C6  UNL     1      20.761  -1.495  54.436  1.00  0.00     0.306 C 
HETATM    5  N3  UNL     1      20.306  -0.783  53.465  1.00  0.00    -0.048 NA
HETATM    6  C7  UNL     1      21.072  -0.072  52.472  1.00  0.00     0.740 C 
HETATM    7  N6  UNL     1      22.329   0.253  52.468  1.00  0.00     0.132 NA
ENDROOT
BRANCH   6   8
HETATM    8  N4  UNL     1      20.333   0.325  51.322  1.00  0.00    -0.220 N 
HETATM    9  H5  UNL     1      19.346  -0.055  51.258  1.00  0.00     0.177 HD
BRANCH   8  10
HETATM   10  C8  UNL     1      20.933   1.194  50.334  1.00  0.00     0.168 C 
BRANCH  10  11
HETATM   11  C9  UNL     1      20.552   2.622  50.748  1.00  0.00     0.292 C 
BRANCH  11  12
HETATM   12  N5  UNL     1      21.646   3.449  50.341  1.00  0.00     0.094 N 
HETATM   13  C10 UNL     1      22.768   2.678  49.912  1.00  0.00     0.298 C 
HETATM   14  C11 UNL     1      24.071   3.068  50.574  1.00  0.00     0.198 C 
HETATM   15  O2  UNL     1      23.913   3.183  51.953  1.00  0.00    -0.388 OA
HETATM   16  C12 UNL     1      22.991   4.159  52.296  1.00  0.00     0.198 C 
HETATM   17  C13 UNL     1      22.000   4.500  51.238  1.00  0.00     0.298 C 
ENDBRANCH  11  12
ENDBRANCH  10  11
ENDBRANCH   8  10
ENDBRANCH   6   8
BRANCH   1  18
HETATM   18  N1  UNL     1      24.532   0.655  53.517  1.00  0.00    -0.186 N 
HETATM   19  H3  UNL     1      24.375   1.693  53.584  1.00  0.00     0.184 HD
BRANCH  18  20
HETATM   20  C4  UNL     1      25.843   0.143  53.496  1.00  0.00     0.049 A 
HETATM   21  C3  UNL     1      26.709   0.612  54.466  1.00  0.00     0.032 A 
HETATM   22  C2  UNL     1      28.023   0.228  54.597  1.00  0.00     0.026 A 
HETATM   23  C1  UNL     1      28.519  -0.680  53.715  1.00  0.00     0.034 A 
HETATM   24 CL1  UNL     1      30.191  -1.185  53.859  1.00  0.00    -0.084 Cl
HETATM   25  C15 UNL     1      27.723  -1.195  52.720  1.00  0.00     0.026 A 
HETATM   26  C14 UNL     1      26.422  -0.757  52.659  1.00  0.00     0.032 A 
ENDBRANCH  18  20
ENDBRANCH   1  18
TORSDOF 6
ENDMDL
MODEL 5
REMARK VINA RESULT:      -7.1      2.930      6.580
REMARK  6 active torsions:
REMARK  status: ('A' for Active; 'I' for Inactive)
REMARK    1  A    between atoms: C4_5  and  N1_6 
REMARK    2  A    between atoms: N1_6  and  C5_7 
REMARK    3  A    between atoms: C7_12  and  N4_13 
REMARK    4  A    between atoms: N4_13  and  C8_14 
REMARK    5  A    between atoms: C8_14  and  C9_15 
REMARK    6  A    between atoms: C9_15  and  N5_16 
ROOT
HETATM    1  C5  UNL     1      21.365   1.133  52.775  1.00  0.00     0.765 C 
HETATM    2  N2  UNL     1      20.179   0.670  52.956  1.00  0.00     0.070 NA
HETATM    3  O1  UNL     1      19.741  -0.395  53.714  1.00  0.00    -0.192 OA
HETATM    4  C6  UNL     1      20.472  -1.553  54.028  1.00  0.00     0.306 C 
HETATM    5  N3  UNL     1      21.754  -1.622  54.119  1.00  0.00    -0.048 NA
HETATM    6  C7  UNL     1      22.701  -0.552  53.925  1.00  0.00     0.740 C 
HETATM    7  N6  UNL     1      22.541   0.606  53.362  1.00  0.00     0.132 NA
ENDROOT
BRANCH   6   8
HETATM    8  N4  UNL     1      24.004  -0.812  54.434  1.00  0.00    -0.220 N 
HETATM    9  H5  UNL     1      24.041  -1.322  55.362  1.00  0.00     0.177 HD
BRANCH   8  10
HETATM   10  C8  UNL     1      25.173  -0.388  53.697  1.00  0.00     0.168 C 
BRANCH  10  11
HETATM   11  C9  UNL     1      26.232  -0.047  54.754  1.00  0.00     0.292 C 
BRANCH  11  12
HETATM   12  N5  UNL     1      27.472   0.052  54.045  1.00  0.00     0.094 N 
HETATM   13  C10 UNL     1      28.559   0.375  54.912  1.00  0.00     0.298 C 
HETATM   14  C11 UNL     1      29.390   1.548  54.442  1.00  0.00     0.198 C 
HETATM   15  O2  UNL     1      28.578   2.617  54.072  1.00  0.00    -0.388 OA
HETATM   16  C12 UNL     1      27.729   2.294  53.025  1.00  0.00     0.198 C 
HETATM   17  C13 UNL     1      27.449   0.841  52.858  1.00  0.00     0.298 C 
ENDBRANCH  11  12
ENDBRANCH  10  11
ENDBRANCH   8  10
ENDBRANCH   6   8
BRANCH   1  18
HETATM   18  N1  UNL     1      21.380   2.244  51.919  1.00  0.00    -0.186 N 
HETATM   19  H3  UNL     1      20.394   2.556  51.721  1.00  0.00     0.184 HD
BRANCH  18  20
HETATM   20  C4  UNL     1      22.463   2.937  51.344  1.00  0.00     0.049 A 
HETATM   21  C3  UNL     1      22.902   2.490  50.112  1.00  0.00     0.032 A 
HETATM   22  C2  UNL     1      23.945   3.040  49.405  1.00  0.00     0.026 A 
HETATM   23  C1  UNL     1      24.600   4.102  49.945  1.00  0.00     0.034 A 
HETATM   24 CL1  UNL     1      25.934   4.822  49.065  1.00  0.00    -0.084 Cl
HETATM   25  C15 UNL     1      24.225   4.606  51.168  1.00  0.00     0.026 A 
HETATM   26  C14 UNL     1      23.173   3.997  51.809  1.00  0.00     0.032 A 
ENDBRANCH  18  20
ENDBRANCH   1  18
TORSDOF 6
ENDMDL
MODEL 6
REMARK VINA RESULT:      -7.1      2.006      4.541
REMARK  6 active torsions:
REMARK  status: ('A' for Active; 'I' for Inactive)
REMARK    1  A    between atoms: C4_5  and  N1_6 
REMARK    2  A    between atoms: N1_6  and  C5_7 
REMARK    3  A    between atoms: C7_12  and  N4_13 
REMARK    4  A    between atoms: N4_13  and  C8_14 
REMARK    5  A    between atoms: C8_14  and  C9_15 
REMARK    6  A    between atoms: C9_15  and  N5_16 
ROOT
HETATM    1  C5  UNL     1      27.278   1.929  52.454  1.00  0.00     0.765 C 
HETATM    2  N2  UNL     1      28.472   2.118  52.891  1.00  0.00     0.070 NA
HETATM    3  O1  UNL     1      29.241   1.359  53.748  1.00  0.00    -0.192 OA
HETATM    4  C6  UNL     1      28.768   0.522  54.772  1.00  0.00     0.306 C 
HETATM    5  N3  UNL     1      27.627  -0.073  54.782  1.00  0.00    -0.048 NA
HETATM    6  C7  UNL     1      26.605  -0.013  53.766  1.00  0.00     0.740 C 
HETATM    7  N6  UNL     1      26.455   0.825  52.787  1.00  0.00     0.132 NA
ENDROOT
BRANCH   6   8
HETATM    8  N4  UNL     1      25.617  -1.033  53.856  1.00  0.00    -0.220 N 
HETATM    9  H5  UNL     1      25.876  -1.963  53.418  1.00  0.00     0.177 HD
BRANCH   8  10
HETATM   10  C8  UNL     1      24.356  -0.772  54.513  1.00  0.00     0.168 C 
BRANCH  10  11
HETATM   11  C9  UNL     1      23.297  -0.779  53.402  1.00  0.00     0.292 C 
BRANCH  11  12
HETATM   12  N5  UNL     1      22.132  -0.172  53.971  1.00  0.00     0.094 N 
HETATM   13  C10 UNL     1      21.066  -1.108  54.129  1.00  0.00     0.298 C 
HETATM   14  C11 UNL     1      19.751  -0.644  53.543  1.00  0.00     0.198 C 
HETATM   15  O2  UNL     1      19.928  -0.146  52.255  1.00  0.00    -0.388 OA
HETATM   16  C12 UNL     1      20.778   0.948  52.227  1.00  0.00     0.198 C 
HETATM   17  C13 UNL     1      21.716   1.056  53.378  1.00  0.00     0.298 C 
ENDBRANCH  11  12
ENDBRANCH  10  11
ENDBRANCH   8  10
ENDBRANCH   6   8
BRANCH   1  18
HETATM   18  N1  UNL     1      26.859   2.950  51.588  1.00  0.00    -0.186 N 
HETATM   19  H3  UNL     1      27.670   3.580  51.360  1.00  0.00     0.184 HD
BRANCH  18  20
HETATM   20  C4  UNL     1      25.592   3.208  51.031  1.00  0.00     0.049 A 
HETATM   21  C3  UNL     1      24.565   3.471  51.919  1.00  0.00     0.032 A 
HETATM   22  C2  UNL     1      23.266   3.741  51.557  1.00  0.00     0.026 A 
HETATM   23  C1  UNL     1      22.955   3.756  50.234  1.00  0.00     0.034 A 
HETATM   24 CL1  UNL     1      21.307   4.096  49.746  1.00  0.00    -0.084 Cl
HETATM   25  C15 UNL     1      23.920   3.504  49.287  1.00  0.00     0.026 A 
HETATM   26  C14 UNL     1      25.193   3.242  49.733  1.00  0.00     0.032 A 
ENDBRANCH  18  20
ENDBRANCH   1  18
TORSDOF 6
ENDMDL
MODEL 7
REMARK VINA RESULT:      -7.1      4.067      7.028
REMARK  6 active torsions:
REMARK  status: ('A' for Active; 'I' for Inactive)
REMARK    1  A    between atoms: C4_5  and  N1_6 
REMARK    2  A    between atoms: N1_6  and  C5_7 
REMARK    3  A    between atoms: C7_12  and  N4_13 
REMARK    4  A    between atoms: N4_13  and  C8_14 
REMARK    5  A    between atoms: C8_14  and  C9_15 
REMARK    6  A    between atoms: C9_15  and  N5_16 
ROOT
HETATM    1  C5  UNL     1      26.175   2.941  50.721  1.00  0.00     0.765 C 
HETATM    2  N2  UNL     1      27.131   2.464  51.437  1.00  0.00     0.070 NA
HETATM    3  O1  UNL     1      27.113   1.925  52.705  1.00  0.00    -0.192 OA
HETATM    4  C6  UNL     1      26.213   2.244  53.736  1.00  0.00     0.306 C 
HETATM    5  N3  UNL     1      25.009   2.665  53.569  1.00  0.00    -0.048 NA
HETATM    6  C7  UNL     1      24.331   2.895  52.316  1.00  0.00     0.740 C 
HETATM    7  N6  UNL     1      24.818   3.010  51.118  1.00  0.00     0.132 NA
ENDROOT
BRANCH   6   8
HETATM    8  N4  UNL     1      22.916   3.006  52.416  1.00  0.00    -0.220 N 
HETATM    9  H5  UNL     1      22.560   3.805  53.016  1.00  0.00     0.177 HD
BRANCH   8  10
HETATM   10  C8  UNL     1      22.060   2.068  51.726  1.00  0.00     0.168 C 
BRANCH  10  11
HETATM   11  C9  UNL     1      21.117   1.500  52.796  1.00  0.00     0.292 C 
BRANCH  11  12
HETATM   12  N5  UNL     1      21.219   0.077  52.688  1.00  0.00     0.094 N 
HETATM   13  C10 UNL     1      20.232  -0.591  53.474  1.00  0.00     0.298 C 
HETATM   14  C11 UNL     1      20.794  -1.659  54.386  1.00  0.00     0.198 C 
HETATM   15  O2  UNL     1      21.901  -1.185  55.086  1.00  0.00    -0.388 OA
HETATM   16  C12 UNL     1      22.933  -0.806  54.242  1.00  0.00     0.198 C 
HETATM   17  C13 UNL     1      22.527  -0.468  52.851  1.00  0.00     0.298 C 
ENDBRANCH  11  12
ENDBRANCH  10  11
ENDBRANCH   8  10
ENDBRANCH   6   8
BRANCH   1  18
HETATM   18  N1  UNL     1      26.621   3.395  49.470  1.00  0.00    -0.186 N 
HETATM   19  H3  UNL     1      26.796   2.575  48.835  1.00  0.00     0.184 HD
BRANCH  18  20
HETATM   20  C4  UNL     1      26.838   4.705  49.002  1.00  0.00     0.049 A 
HETATM   21  C3  UNL     1      28.110   4.999  48.548  1.00  0.00     0.032 A 
HETATM   22  C2  UNL     1      28.505   6.222  48.060  1.00  0.00     0.026 A 
HETATM   23  C1  UNL     1      27.587   7.224  48.012  1.00  0.00     0.034 A 
HETATM   24 CL1  UNL     1      28.064   8.793  47.394  1.00  0.00    -0.084 Cl
HETATM   25  C15 UNL     1      26.299   7.013  48.444  1.00  0.00     0.026 A 
HETATM   26  C14 UNL     1      25.988   5.761  48.919  1.00  0.00     0.032 A 
ENDBRANCH  18  20
ENDBRANCH   1  18
TORSDOF 6
ENDMDL
MODEL 8
REMARK VINA RESULT:      -7.0      3.603      5.495
REMARK  6 active torsions:
REMARK  status: ('A' for Active; 'I' for Inactive)
REMARK    1  A    between atoms: C4_5  and  N1_6 
REMARK    2  A    between atoms: N1_6  and  C5_7 
REMARK    3  A    between atoms: C7_12  and  N4_13 
REMARK    4  A    between atoms: N4_13  and  C8_14 
REMARK    5  A    between atoms: C8_14  and  C9_15 
REMARK    6  A    between atoms: C9_15  and  N5_16 
ROOT
HETATM    1  C5  UNL     1      23.197   0.158  53.303  1.00  0.00     0.765 C 
HETATM    2  N2  UNL     1      22.007  -0.284  53.508  1.00  0.00     0.070 NA
HETATM    3  O1  UNL     1      20.792   0.171  53.041  1.00  0.00    -0.192 OA
HETATM    4  C6  UNL     1      20.472   1.496  52.701  1.00  0.00     0.306 C 
HETATM    5  N3  UNL     1      21.309   2.380  52.283  1.00  0.00    -0.048 NA
HETATM    6  C7  UNL     1      22.726   2.210  52.074  1.00  0.00     0.740 C 
HETATM    7  N6  UNL     1      23.521   1.278  52.499  1.00  0.00     0.132 NA
ENDROOT
BRANCH   6   8
HETATM    8  N4  UNL     1      23.334   3.218  51.275  1.00  0.00    -0.220 N 
HETATM    9  H5  UNL     1      23.409   4.176  51.723  1.00  0.00     0.177 HD
BRANCH   8  10
HETATM   10  C8  UNL     1      23.807   2.908  49.944  1.00  0.00     0.168 C 
BRANCH  10  11
HETATM   11  C9  UNL     1      24.075   4.261  49.271  1.00  0.00     0.292 C 
BRANCH  11  12
HETATM   12  N5  UNL     1      25.121   4.873  50.033  1.00  0.00     0.094 N 
HETATM   13  C10 UNL     1      24.967   6.291  50.109  1.00  0.00     0.298 C 
HETATM   14  C11 UNL     1      26.209   7.063  49.724  1.00  0.00     0.198 C 
HETATM   15  O2  UNL     1      26.748   6.580  48.535  1.00  0.00    -0.388 OA
HETATM   16  C12 UNL     1      27.128   5.250  48.632  1.00  0.00     0.198 C 
HETATM   17  C13 UNL     1      26.448   4.471  49.704  1.00  0.00     0.298 C 
ENDBRANCH  11  12
ENDBRANCH  10  11
ENDBRANCH   8  10
ENDBRANCH   6   8
BRANCH   1  18
HETATM   18  N1  UNL     1      24.170  -0.602  53.970  1.00  0.00    -0.186 N 
HETATM   19  H3  UNL     1      23.707  -1.359  54.535  1.00  0.00     0.184 HD
BRANCH  18  20
HETATM   20  C4  UNL     1      25.574  -0.486  53.969  1.00  0.00     0.049 A 
HETATM   21  C3  UNL     1      26.251  -1.150  52.964  1.00  0.00     0.032 A 
HETATM   22  C2  UNL     1      27.617  -1.152  52.808  1.00  0.00     0.026 A 
HETATM   23  C1  UNL     1      28.368  -0.453  53.699  1.00  0.00     0.034 A 
HETATM   24 CL1  UNL     1      30.112  -0.440  53.524  1.00  0.00    -0.084 Cl
HETATM   25  C15 UNL     1      27.771   0.235  54.729  1.00  0.00     0.026 A 
HETATM   26  C14 UNL     1      26.400   0.184  54.813  1.00  0.00     0.032 A 
ENDBRANCH  18  20
ENDBRANCH   1  18
TORSDOF 6
ENDMDL
MODEL 9
REMARK VINA RESULT:      -6.9      5.538      9.269
REMARK  6 active torsions:
REMARK  status: ('A' for Active; 'I' for Inactive)
REMARK    1  A    between atoms: C4_5  and  N1_6 
REMARK    2  A    between atoms: N1_6  and  C5_7 
REMARK    3  A    between atoms: C7_12  and  N4_13 
REMARK    4  A    between atoms: N4_13  and  C8_14 
REMARK    5  A    between atoms: C8_14  and  C9_15 
REMARK    6  A    between atoms: C9_15  and  N5_16 
ROOT
HETATM    1  C5  UNL     1      27.984   5.840  48.489  1.00  0.00     0.765 C 
HETATM    2  N2  UNL     1      27.304   6.908  48.714  1.00  0.00     0.070 NA
HETATM    3  O1  UNL     1      26.149   7.095  49.443  1.00  0.00    -0.192 OA
HETATM    4  C6  UNL     1      25.135   6.147  49.658  1.00  0.00     0.306 C 
HETATM    5  N3  UNL     1      25.299   4.871  49.673  1.00  0.00    -0.048 NA
HETATM    6  C7  UNL     1      26.533   4.148  49.479  1.00  0.00     0.740 C 
HETATM    7  N6  UNL     1      27.662   4.552  48.983  1.00  0.00     0.132 NA
ENDROOT
BRANCH   6   8
HETATM    8  N4  UNL     1      26.499   2.790  49.900  1.00  0.00    -0.220 N 
HETATM    9  H5  UNL     1      26.896   2.086  49.214  1.00  0.00     0.177 HD
BRANCH   8  10
HETATM   10  C8  UNL     1      25.951   2.440  51.192  1.00  0.00     0.168 C 
BRANCH  10  11
HETATM   11  C9  UNL     1      26.836   1.307  51.727  1.00  0.00     0.292 C 
BRANCH  11  12
HETATM   12  N5  UNL     1      27.252   1.722  53.033  1.00  0.00     0.094 N 
HETATM   13  C10 UNL     1      28.565   1.259  53.348  1.00  0.00     0.298 C 
HETATM   14  C11 UNL     1      28.660   0.545  54.678  1.00  0.00     0.198 C 
HETATM   15  O2  UNL     1      27.642  -0.395  54.813  1.00  0.00    -0.388 OA
HETATM   16  C12 UNL     1      26.384   0.183  54.767  1.00  0.00     0.198 C 
HETATM   17  C13 UNL     1      26.314   1.503  54.084  1.00  0.00     0.298 C 
ENDBRANCH  11  12
ENDBRANCH  10  11
ENDBRANCH   8  10
ENDBRANCH   6   8
BRANCH   1  18
HETATM   18  N1  UNL     1      29.110   6.083  47.688  1.00  0.00    -0.186 N 
HETATM   19  H3  UNL     1      28.806   6.367  46.722  1.00  0.00     0.184 HD
BRANCH  18  20
HETATM   20  C4  UNL     1      30.481   6.003  47.997  1.00  0.00     0.049 A 
HETATM   21  C3  UNL     1      31.140   4.853  47.606  1.00  0.00     0.032 A 
HETATM   22  C2  UNL     1      32.474   4.601  47.825  1.00  0.00     0.026 A 
HETATM   23  C1  UNL     1      33.210   5.544  48.471  1.00  0.00     0.034 A 
HETATM   24 CL1  UNL     1      34.913   5.247  48.764  1.00  0.00    -0.084 Cl
HETATM   25  C15 UNL     1      32.629   6.716  48.893  1.00  0.00     0.026 A 
HETATM   26  C14 UNL     1      31.290   6.888  48.635  1.00  0.00     0.032 A 
ENDBRANCH  18  20
ENDBRANCH   1  18
TORSDOF 6
ENDMDL
