MODEL 1
REMARK VINA RESULT:      -8.1      0.000      0.000
REMARK  2 active torsions:
REMARK  status: ('A' for Active; 'I' for Inactive)
REMARK    1  A    between atoms: C2_2  and  C3_3 
REMARK    2  A    between atoms: C4_4  and  N1_5 
ROOT
HETATM    1  N1  UNL     1      26.011   2.610  51.170  1.00  0.00    -0.328 N 
HETATM    2  C5  UNL     1      26.871   1.870  51.866  1.00  0.00     0.023 A 
HETATM    3  C6  UNL     1      27.662   2.109  52.601  1.00  0.00     0.082 A 
HETATM    4  C7  UNL     1      28.616   2.054  53.779  1.00  0.00     0.012 C 
HETATM    5  C8  UNL     1      27.884   0.889  53.907  1.00  0.00     0.027 C 
HETATM    6  N2  UNL     1      27.314   0.052  55.048  1.00  0.00    -0.342 N 
HETATM    7  C9  UNL     1      25.862  -0.337  54.869  1.00  0.00     0.144 A 
HETATM    8  N3  UNL     1      24.808  -1.148  54.954  1.00  0.00    -0.210 NA
HETATM    9  C10 UNL     1      23.995  -0.247  54.305  1.00  0.00     0.165 A 
HETATM   10  N4  UNL     1      22.709  -0.023  53.808  1.00  0.00    -0.241 NA
HETATM   11  C11 UNL     1      22.373   0.102  52.458  1.00  0.00     0.119 C 
HETATM   12  C12 UNL     1      22.902   0.918  51.453  1.00  0.00     0.022 C 
HETATM   13  C13 UNL     1      23.848   1.903  51.254  1.00  0.00     0.031 C 
HETATM   14  C14 UNL     1      24.875   2.124  52.141  1.00  0.00     0.039 C 
HETATM   15  C15 UNL     1      25.095   1.996  53.584  1.00  0.00     0.049 C 
HETATM   16  C16 UNL     1      25.151   0.679  54.198  1.00  0.00     0.060 A 
HETATM   17  C17 UNL     1      27.672   0.665  52.360  1.00  0.00     0.144 A 
HETATM   18 BR1  UNL     1      26.752  -1.004  52.018  1.00  0.00    -0.079 Br
HETATM   19  H10 UNL     1      27.940  -0.139  55.806  1.00  0.00     0.167 HD
ENDROOT
BRANCH   1  20
HETATM   20  C4  UNL     1      25.701   3.435  50.231  1.00  0.00     0.093 C 
HETATM   21  C3  UNL     1      26.721   4.186  49.782  1.00  0.00    -0.009 C 
BRANCH  21  22
HETATM   22  C2  UNL     1      26.725   5.229  48.723  1.00  0.00     0.024 C 
HETATM   23  C1  UNL     1      28.158   5.620  48.371  1.00  0.00     0.009 C 
ENDBRANCH  21  22
ENDBRANCH   1  20
TORSDOF 2
ENDMDL
MODEL 2
REMARK VINA RESULT:      -7.9      2.521      5.611
REMARK  2 active torsions:
REMARK  status: ('A' for Active; 'I' for Inactive)
REMARK    1  A    between atoms: C2_2  and  C3_3 
REMARK    2  A    between atoms: C4_4  and  N1_5 
ROOT
HETATM    1  N1  UNL     1      25.268   0.985  51.917  1.00  0.00    -0.328 N 
HETATM    2  C5  UNL     1      23.939   0.911  51.952  1.00  0.00     0.023 A 
HETATM    3  C6  UNL     1      23.211   0.657  52.744  1.00  0.00     0.082 A 
HETATM    4  C7  UNL     1      21.972   0.609  53.617  1.00  0.00     0.012 C 
HETATM    5  C8  UNL     1      21.651   1.554  52.662  1.00  0.00     0.027 C 
HETATM    6  N2  UNL     1      20.881   2.870  52.612  1.00  0.00    -0.342 N 
HETATM    7  C9  UNL     1      21.616   3.995  51.916  1.00  0.00     0.144 A 
HETATM    8  N3  UNL     1      21.723   5.073  51.140  1.00  0.00    -0.210 NA
HETATM    9  C10 UNL     1      23.093   5.096  51.266  1.00  0.00     0.165 A 
HETATM   10  N4  UNL     1      24.264   5.750  50.875  1.00  0.00    -0.241 NA
HETATM   11  C11 UNL     1      25.267   5.202  50.072  1.00  0.00     0.119 C 
HETATM   12  C12 UNL     1      25.976   4.001  50.181  1.00  0.00     0.022 C 
HETATM   13  C13 UNL     1      26.099   2.896  50.999  1.00  0.00     0.031 C 
HETATM   14  C14 UNL     1      25.137   2.551  51.917  1.00  0.00     0.039 C 
HETATM   15  C15 UNL     1      24.150   3.243  52.752  1.00  0.00     0.049 C 
HETATM   16  C16 UNL     1      23.006   3.896  52.137  1.00  0.00     0.060 A 
HETATM   17  C17 UNL     1      22.480   0.888  51.496  1.00  0.00     0.144 A 
HETATM   18 BR1  UNL     1      22.228   1.841  49.830  1.00  0.00    -0.079 Br
HETATM   19  H10 UNL     1      19.985   2.870  53.058  1.00  0.00     0.167 HD
ENDROOT
BRANCH   1  20
HETATM   20  C4  UNL     1      26.449   0.470  51.907  1.00  0.00     0.093 C 
HETATM   21  C3  UNL     1      26.630  -0.541  52.772  1.00  0.00    -0.009 C 
BRANCH  21  22
HETATM   22  C2  UNL     1      27.848  -1.352  53.027  1.00  0.00     0.024 C 
HETATM   23  C1  UNL     1      28.910  -0.507  53.726  1.00  0.00     0.009 C 
ENDBRANCH  21  22
ENDBRANCH   1  20
TORSDOF 2
ENDMDL
MODEL 3
REMARK VINA RESULT:      -7.4      3.291      6.052
REMARK  2 active torsions:
REMARK  status: ('A' for Active; 'I' for Inactive)
REMARK    1  A    between atoms: C2_2  and  C3_3 
REMARK    2  A    between atoms: C4_4  and  N1_5 
ROOT
HETATM    1  N1  UNL     1      23.580   1.169  52.188  1.00  0.00    -0.328 N 
HETATM    2  C5  UNL     1      23.056   2.088  51.381  1.00  0.00     0.023 A 
HETATM    3  C6  UNL     1      23.227   2.362  50.324  1.00  0.00     0.082 A 
HETATM    4  C7  UNL     1      23.032   2.821  48.892  1.00  0.00     0.012 C 
HETATM    5  C8  UNL     1      21.766   2.926  49.435  1.00  0.00     0.027 C 
HETATM    6  N2  UNL     1      20.331   2.701  48.968  1.00  0.00    -0.342 N 
HETATM    7  C9  UNL     1      19.490   1.873  49.916  1.00  0.00     0.144 A 
HETATM    8  N3  UNL     1      18.375   1.532  50.560  1.00  0.00    -0.210 NA
HETATM    9  C10 UNL     1      19.020   0.540  51.263  1.00  0.00     0.165 A 
HETATM   10  N4  UNL     1      18.871  -0.447  52.240  1.00  0.00    -0.241 NA
HETATM   11  C11 UNL     1      19.471  -0.433  53.502  1.00  0.00     0.119 C 
HETATM   12  C12 UNL     1      20.806  -0.262  53.881  1.00  0.00     0.022 C 
HETATM   13  C13 UNL     1      22.063  -0.078  53.339  1.00  0.00     0.031 C 
HETATM   14  C14 UNL     1      22.249   0.347  52.046  1.00  0.00     0.039 C 
HETATM   15  C15 UNL     1      21.551   0.224  50.763  1.00  0.00     0.049 C 
HETATM   16  C16 UNL     1      20.278   0.896  50.559  1.00  0.00     0.060 A 
HETATM   17  C17 UNL     1      22.249   3.292  50.892  1.00  0.00     0.144 A 
HETATM   18 BR1  UNL     1      20.745   3.672  52.049  1.00  0.00    -0.079 Br
HETATM   19  H10 UNL     1      20.092   3.099  48.080  1.00  0.00     0.167 HD
ENDROOT
BRANCH   1  20
HETATM   20  C4  UNL     1      24.527   0.679  52.913  1.00  0.00     0.093 C 
HETATM   21  C3  UNL     1      25.650   0.377  52.241  1.00  0.00    -0.009 C 
BRANCH  21  22
HETATM   22  C2  UNL     1      26.922  -0.201  52.750  1.00  0.00     0.024 C 
HETATM   23  C1  UNL     1      26.904  -1.721  52.615  1.00  0.00     0.009 C 
ENDBRANCH  21  22
ENDBRANCH   1  20
TORSDOF 2
ENDMDL
MODEL 4
REMARK VINA RESULT:      -7.3      2.791      5.396
REMARK  2 active torsions:
REMARK  status: ('A' for Active; 'I' for Inactive)
REMARK    1  A    between atoms: C2_2  and  C3_3 
REMARK    2  A    between atoms: C4_4  and  N1_5 
ROOT
HETATM    1  N1  UNL     1      24.745   1.211  52.280  1.00  0.00    -0.328 N 
HETATM    2  C5  UNL     1      24.752   2.402  51.685  1.00  0.00     0.023 A 
HETATM    3  C6  UNL     1      25.165   2.774  50.729  1.00  0.00     0.082 A 
HETATM    4  C7  UNL     1      25.373   3.538  49.436  1.00  0.00     0.012 C 
HETATM    5  C8  UNL     1      24.193   4.062  49.929  1.00  0.00     0.027 C 
HETATM    6  N2  UNL     1      22.870   4.559  49.355  1.00  0.00    -0.342 N 
HETATM    7  C9  UNL     1      21.643   3.999  50.044  1.00  0.00     0.144 A 
HETATM    8  N3  UNL     1      20.407   4.045  50.538  1.00  0.00    -0.210 NA
HETATM    9  C10 UNL     1      20.494   2.759  51.021  1.00  0.00     0.165 A 
HETATM   10  N4  UNL     1      19.826   1.761  51.734  1.00  0.00    -0.241 NA
HETATM   11  C11 UNL     1      20.198   1.277  52.991  1.00  0.00     0.119 C 
HETATM   12  C12 UNL     1      21.422   0.792  53.461  1.00  0.00     0.022 C 
HETATM   13  C13 UNL     1      22.709   0.527  53.037  1.00  0.00     0.031 C 
HETATM   14  C14 UNL     1      23.229   1.073  51.888  1.00  0.00     0.039 C 
HETATM   15  C15 UNL     1      22.728   1.505  50.580  1.00  0.00     0.049 C 
HETATM   16  C16 UNL     1      21.874   2.678  50.479  1.00  0.00     0.060 A 
HETATM   17  C17 UNL     1      24.574   3.902  51.451  1.00  0.00     0.144 A 
HETATM   18 BR1  UNL     1      23.203   4.654  52.594  1.00  0.00    -0.079 Br
HETATM   19  H10 UNL     1      22.938   5.182  48.574  1.00  0.00     0.167 HD
ENDROOT
BRANCH   1  20
HETATM   20  C4  UNL     1      25.303   0.239  52.914  1.00  0.00     0.093 C 
HETATM   21  C3  UNL     1      26.394  -0.269  52.318  1.00  0.00    -0.009 C 
BRANCH  21  22
HETATM   22  C2  UNL     1      27.273  -1.383  52.759  1.00  0.00     0.024 C 
HETATM   23  C1  UNL     1      28.545  -0.832  53.399  1.00  0.00     0.009 C 
ENDBRANCH  21  22
ENDBRANCH   1  20
TORSDOF 2
ENDMDL
MODEL 5
REMARK VINA RESULT:      -6.9      3.493      5.053
REMARK  2 active torsions:
REMARK  status: ('A' for Active; 'I' for Inactive)
REMARK    1  A    between atoms: C2_2  and  C3_3 
REMARK    2  A    between atoms: C4_4  and  N1_5 
ROOT
HETATM    1  N1  UNL     1      23.954   3.661  49.988  1.00  0.00    -0.328 N 
HETATM    2  C5  UNL     1      23.535   2.604  50.681  1.00  0.00     0.023 A 
HETATM    3  C6  UNL     1      23.798   2.188  51.671  1.00  0.00     0.082 A 
HETATM    4  C7  UNL     1      23.732   1.512  53.027  1.00  0.00     0.012 C 
HETATM    5  C8  UNL     1      22.436   1.415  52.560  1.00  0.00     0.027 C 
HETATM    6  N2  UNL     1      21.031   1.485  53.151  1.00  0.00    -0.342 N 
HETATM    7  C9  UNL     1      20.083   2.394  52.398  1.00  0.00     0.144 A 
HETATM    8  N3  UNL     1      18.908   2.761  51.889  1.00  0.00    -0.210 NA
HETATM    9  C10 UNL     1      19.451   3.882  51.302  1.00  0.00     0.165 A 
HETATM   10  N4  UNL     1      19.182   4.992  50.497  1.00  0.00    -0.241 NA
HETATM   11  C11 UNL     1      19.686   5.199  49.211  1.00  0.00     0.119 C 
HETATM   12  C12 UNL     1      20.996   5.163  48.722  1.00  0.00     0.022 C 
HETATM   13  C13 UNL     1      22.297   4.974  49.144  1.00  0.00     0.031 C 
HETATM   14  C14 UNL     1      22.600   4.375  50.343  1.00  0.00     0.039 C 
HETATM   15  C15 UNL     1      21.995   4.266  51.673  1.00  0.00     0.049 C 
HETATM   16  C16 UNL     1      20.773   3.499  51.858  1.00  0.00     0.060 A 
HETATM   17  C17 UNL     1      22.825   1.297  51.035  1.00  0.00     0.144 A 
HETATM   18 BR1  UNL     1      21.258   1.005  49.937  1.00  0.00    -0.079 Br
HETATM   19  H10 UNL     1      20.879   0.948  53.982  1.00  0.00     0.167 HD
ENDROOT
BRANCH   1  20
HETATM   20  C4  UNL     1      24.819   4.306  49.284  1.00  0.00     0.093 C 
HETATM   21  C3  UNL     1      26.098   3.967  49.516  1.00  0.00    -0.009 C 
BRANCH  21  22
HETATM   22  C2  UNL     1      27.338   4.502  48.896  1.00  0.00     0.024 C 
HETATM   23  C1  UNL     1      27.160   5.976  48.542  1.00  0.00     0.009 C 
ENDBRANCH  21  22
ENDBRANCH   1  20
TORSDOF 2
ENDMDL
MODEL 6
REMARK VINA RESULT:      -6.9      3.166      7.067
REMARK  2 active torsions:
REMARK  status: ('A' for Active; 'I' for Inactive)
REMARK    1  A    between atoms: C2_2  and  C3_3 
REMARK    2  A    between atoms: C4_4  and  N1_5 
ROOT
HETATM    1  N1  UNL     1      23.430   2.052  51.820  1.00  0.00    -0.328 N 
HETATM    2  C5  UNL     1      22.454   2.595  51.097  1.00  0.00     0.023 A 
HETATM    3  C6  UNL     1      21.541   3.163  51.353  1.00  0.00     0.082 A 
HETATM    4  C7  UNL     1      20.384   4.144  51.326  1.00  0.00     0.012 C 
HETATM    5  C8  UNL     1      21.076   4.435  50.166  1.00  0.00     0.027 C 
HETATM    6  N2  UNL     1      21.421   5.683  49.359  1.00  0.00    -0.342 N 
HETATM    7  C9  UNL     1      22.879   5.787  48.967  1.00  0.00     0.144 A 
HETATM    8  N3  UNL     1      23.897   6.086  48.161  1.00  0.00    -0.210 NA
HETATM    9  C10 UNL     1      24.820   5.578  49.047  1.00  0.00     0.165 A 
HETATM   10  N4  UNL     1      26.176   5.324  49.260  1.00  0.00    -0.241 NA
HETATM   11  C11 UNL     1      26.758   4.056  49.351  1.00  0.00     0.119 C 
HETATM   12  C12 UNL     1      26.428   2.951  50.141  1.00  0.00     0.022 C 
HETATM   13  C13 UNL     1      25.538   2.555  51.120  1.00  0.00     0.031 C 
HETATM   14  C14 UNL     1      24.365   3.229  51.361  1.00  0.00     0.039 C 
HETATM   15  C15 UNL     1      23.880   4.609  51.269  1.00  0.00     0.049 C 
HETATM   16  C16 UNL     1      23.706   5.235  49.968  1.00  0.00     0.060 A 
HETATM   17  C17 UNL     1      21.571   2.961  49.903  1.00  0.00     0.144 A 
HETATM   18 BR1  UNL     1      22.534   2.838  48.228  1.00  0.00    -0.079 Br
HETATM   19  H10 UNL     1      20.664   6.316  49.186  1.00  0.00     0.167 HD
ENDROOT
BRANCH   1  20
HETATM   20  C4  UNL     1      23.912   1.166  52.622  1.00  0.00     0.093 C 
HETATM   21  C3  UNL     1      22.997   0.362  53.188  1.00  0.00    -0.009 C 
BRANCH  21  22
HETATM   22  C2  UNL     1      23.193  -0.752  54.152  1.00  0.00     0.024 C 
HETATM   23  C1  UNL     1      21.855  -1.174  54.752  1.00  0.00     0.009 C 
ENDBRANCH  21  22
ENDBRANCH   1  20
TORSDOF 2
ENDMDL
MODEL 7
REMARK VINA RESULT:      -6.7      6.982     11.156
REMARK  2 active torsions:
REMARK  status: ('A' for Active; 'I' for Inactive)
REMARK    1  A    between atoms: C2_2  and  C3_3 
REMARK    2  A    between atoms: C4_4  and  N1_5 
ROOT
HETATM    1  N1  UNL     1      30.346   6.930  47.844  1.00  0.00    -0.328 N 
HETATM    2  C5  UNL     1      30.747   8.022  47.198  1.00  0.00     0.023 A 
HETATM    3  C6  UNL     1      30.566   9.103  47.343  1.00  0.00     0.082 A 
HETATM    4  C7  UNL     1      30.730  10.610  47.391  1.00  0.00     0.012 C 
HETATM    5  C8  UNL     1      31.949  10.173  46.911  1.00  0.00     0.027 C 
HETATM    6  N2  UNL     1      33.414  10.571  47.065  1.00  0.00    -0.342 N 
HETATM    7  C9  UNL     1      34.344   9.416  47.369  1.00  0.00     0.144 A 
HETATM    8  N3  UNL     1      35.480   8.724  47.288  1.00  0.00    -0.210 NA
HETATM    9  C10 UNL     1      34.974   7.700  48.056  1.00  0.00     0.165 A 
HETATM   10  N4  UNL     1      35.244   6.443  48.602  1.00  0.00    -0.241 NA
HETATM   11  C11 UNL     1      34.613   5.250  48.238  1.00  0.00     0.119 C 
HETATM   12  C12 UNL     1      33.257   4.919  48.150  1.00  0.00     0.022 C 
HETATM   13  C13 UNL     1      32.003   5.456  48.362  1.00  0.00     0.031 C 
HETATM   14  C14 UNL     1      31.790   6.811  48.451  1.00  0.00     0.039 C 
HETATM   15  C15 UNL     1      32.535   7.988  48.908  1.00  0.00     0.049 C 
HETATM   16  C16 UNL     1      33.697   8.449  48.166  1.00  0.00     0.060 A 
HETATM   17  C17 UNL     1      31.375   8.925  46.136  1.00  0.00     0.144 A 
HETATM   18 BR1  UNL     1      32.771   8.016  45.149  1.00  0.00    -0.079 Br
HETATM   19  H10 UNL     1      33.614  11.548  46.972  1.00  0.00     0.167 HD
ENDROOT
BRANCH   1  20
HETATM   20  C4  UNL     1      29.465   6.054  48.186  1.00  0.00     0.093 C 
HETATM   21  C3  UNL     1      28.204   6.515  48.240  1.00  0.00    -0.009 C 
BRANCH  21  22
HETATM   22  C2  UNL     1      26.955   5.793  48.596  1.00  0.00     0.024 C 
HETATM   23  C1  UNL     1      27.270   4.349  48.978  1.00  0.00     0.009 C 
ENDBRANCH  21  22
ENDBRANCH   1  20
TORSDOF 2
ENDMDL
MODEL 8
REMARK VINA RESULT:      -6.7      5.968     10.435
REMARK  2 active torsions:
REMARK  status: ('A' for Active; 'I' for Inactive)
REMARK    1  A    between atoms: C2_2  and  C3_3 
REMARK    2  A    between atoms: C4_4  and  N1_5 
ROOT
HETATM    1  N1  UNL     1      29.737   6.076  47.883  1.00  0.00    -0.328 N 
HETATM    2  C5  UNL     1      30.926   5.481  47.819  1.00  0.00     0.023 A 
HETATM    3  C6  UNL     1      31.338   4.669  47.192  1.00  0.00     0.082 A 
HETATM    4  C7  UNL     1      32.271   3.795  46.375  1.00  0.00     0.012 C 
HETATM    5  C8  UNL     1      33.085   4.835  46.782  1.00  0.00     0.027 C 
HETATM    6  N2  UNL     1      34.235   5.644  46.193  1.00  0.00    -0.342 N 
HETATM    7  C9  UNL     1      34.081   7.143  46.340  1.00  0.00     0.144 A 
HETATM    8  N3  UNL     1      34.507   8.389  46.549  1.00  0.00    -0.210 NA
HETATM    9  C10 UNL     1      33.228   8.893  46.494  1.00  0.00     0.165 A 
HETATM   10  N4  UNL     1      32.452  10.050  46.604  1.00  0.00    -0.241 NA
HETATM   11  C11 UNL     1      31.525  10.309  47.617  1.00  0.00     0.119 C 
HETATM   12  C12 UNL     1      30.456   9.547  48.098  1.00  0.00     0.022 C 
HETATM   13  C13 UNL     1      29.801   8.352  47.876  1.00  0.00     0.031 C 
HETATM   14  C14 UNL     1      30.371   7.323  47.167  1.00  0.00     0.039 C 
HETATM   15  C15 UNL     1      31.323   7.177  46.062  1.00  0.00     0.049 C 
HETATM   16  C16 UNL     1      32.724   7.517  46.257  1.00  0.00     0.060 A 
HETATM   17  C17 UNL     1      32.358   5.073  48.163  1.00  0.00     0.144 A 
HETATM   18 BR1  UNL     1      33.267   6.430  49.202  1.00  0.00    -0.079 Br
HETATM   19  H10 UNL     1      34.962   5.115  45.752  1.00  0.00     0.167 HD
ENDROOT
BRANCH   1  20
HETATM   20  C4  UNL     1      28.485   6.116  48.183  1.00  0.00     0.093 C 
HETATM   21  C3  UNL     1      27.972   4.951  48.615  1.00  0.00    -0.009 C 
BRANCH  21  22
HETATM   22  C2  UNL     1      26.583   4.636  49.039  1.00  0.00     0.024 C 
HETATM   23  C1  UNL     1      26.518   3.232  49.636  1.00  0.00     0.009 C 
ENDBRANCH  21  22
ENDBRANCH   1  20
TORSDOF 2
ENDMDL
MODEL 9
REMARK VINA RESULT:      -6.7      3.119      6.341
REMARK  2 active torsions:
REMARK  status: ('A' for Active; 'I' for Inactive)
REMARK    1  A    between atoms: C2_2  and  C3_3 
REMARK    2  A    between atoms: C4_4  and  N1_5 
ROOT
HETATM    1  N1  UNL     1      22.763   1.135  51.923  1.00  0.00    -0.328 N 
HETATM    2  C5  UNL     1      23.727   2.049  51.849  1.00  0.00     0.023 A 
HETATM    3  C6  UNL     1      24.799   2.007  51.581  1.00  0.00     0.082 A 
HETATM    4  C7  UNL     1      26.179   2.347  51.051  1.00  0.00     0.012 C 
HETATM    5  C8  UNL     1      25.430   3.463  50.729  1.00  0.00     0.027 C 
HETATM    6  N2  UNL     1      25.356   4.459  49.577  1.00  0.00    -0.342 N 
HETATM    7  C9  UNL     1      23.955   4.708  49.059  1.00  0.00     0.144 A 
HETATM    8  N3  UNL     1      22.960   5.447  48.568  1.00  0.00    -0.210 NA
HETATM    9  C10 UNL     1      22.084   4.386  48.603  1.00  0.00     0.165 A 
HETATM   10  N4  UNL     1      20.768   3.986  48.361  1.00  0.00    -0.241 NA
HETATM   11  C11 UNL     1      19.850   3.587  49.337  1.00  0.00     0.119 C 
HETATM   12  C12 UNL     1      19.951   2.635  50.355  1.00  0.00     0.022 C 
HETATM   13  C13 UNL     1      20.824   1.696  50.868  1.00  0.00     0.031 C 
HETATM   14  C14 UNL     1      22.170   1.716  50.589  1.00  0.00     0.039 C 
HETATM   15  C15 UNL     1      23.031   2.129  49.476  1.00  0.00     0.049 C 
HETATM   16  C16 UNL     1      23.173   3.538  49.149  1.00  0.00     0.060 A 
HETATM   17  C17 UNL     1      24.473   3.377  51.981  1.00  0.00     0.144 A 
HETATM   18 BR1  UNL     1      23.260   4.886  52.034  1.00  0.00    -0.079 Br
HETATM   19  H10 UNL     1      26.231   4.831  49.262  1.00  0.00     0.167 HD
ENDROOT
BRANCH   1  20
HETATM   20  C4  UNL     1      22.171   0.128  52.467  1.00  0.00     0.093 C 
HETATM   21  C3  UNL     1      22.567  -0.147  53.721  1.00  0.00    -0.009 C 
BRANCH  21  22
HETATM   22  C2  UNL     1      22.106  -1.224  54.636  1.00  0.00     0.024 C 
HETATM   23  C1  UNL     1      20.697  -1.672  54.258  1.00  0.00     0.009 C 
ENDBRANCH  21  22
ENDBRANCH   1  20
TORSDOF 2
ENDMDL
