MODEL 1
REMARK VINA RESULT:      -7.9      0.000      0.000
REMARK  6 active torsions:
REMARK  status: ('A' for Active; 'I' for Inactive)
REMARK    1  A    between atoms: O1_2  and  C2_3 
REMARK    2  A    between atoms: C5_6  and  N1_7 
REMARK    3  A    between atoms: C5_6  and  N3_10 
REMARK    4  A    between atoms: C6_8  and  N2_9 
REMARK    5  A    between atoms: N3_10  and  C7_11 
REMARK    6  A    between atoms: C14_20  and  N4_21 
REMARK       I    between atoms: N4_21  and  C15_22 
ROOT
HETATM    1  C2  UNL     1      22.216   1.724  50.582  1.00  0.00     0.091 A 
HETATM    2  C3  UNL     1      22.970   2.363  49.697  1.00  0.00     0.017 A 
HETATM    3  C4  UNL     1      24.087   3.279  49.927  1.00  0.00     0.090 A 
HETATM    4  C5  UNL     1      24.428   3.531  51.352  1.00  0.00     0.149 A 
HETATM    5  C13 UNL     1      23.565   2.800  52.309  1.00  0.00     0.061 A 
HETATM    6  C14 UNL     1      22.568   1.984  51.993  1.00  0.00     0.068 A 
ENDROOT
BRANCH   4   7
HETATM    7  N1  UNL     1      24.287   4.954  51.669  1.00  0.00    -0.254 NA
HETATM    8  C6  UNL     1      24.222   5.849  50.754  1.00  0.00     0.170 C 
BRANCH   8   9
HETATM    9  N2  UNL     1      24.125   6.623  51.937  1.00  0.00    -0.297 NA
HETATM   10  H8  UNL     1      23.496   6.261  52.705  1.00  0.00     0.124 HD
HETATM   11  H9  UNL     1      23.926   7.054  52.876  1.00  0.00     0.124 HD
ENDBRANCH   8   9
ENDBRANCH   4   7
BRANCH   4  12
HETATM   12  N3  UNL     1      25.805   3.181  51.696  1.00  0.00    -0.367 N 
HETATM   13  H10 UNL     1      26.533   3.870  52.007  1.00  0.00     0.161 HD
BRANCH  12  14
HETATM   14  C7  UNL     1      26.134   1.820  51.589  1.00  0.00     0.097 C 
HETATM   15  C8  UNL     1      26.476   0.921  52.477  1.00  0.00    -0.014 A 
HETATM   16  C9  UNL     1      26.561   1.314  53.878  1.00  0.00     0.037 A 
HETATM   17  C12 UNL     1      26.747  -0.418  51.967  1.00  0.00     0.082 A 
HETATM   18  C10 UNL     1      26.921   0.311  54.696  1.00  0.00     0.146 A 
HETATM   19  O2  UNL     1      27.185  -0.981  54.229  1.00  0.00    -0.297 OA
HETATM   20  C11 UNL     1      27.098  -1.333  52.885  1.00  0.00     0.230 A 
HETATM   21  F1  UNL     1      27.373  -2.615  52.524  1.00  0.00    -0.178 F 
ENDBRANCH  12  14
ENDBRANCH   4  12
BRANCH   6  22
HETATM   22  N4  UNL     1      21.798   1.328  53.002  1.00  0.00    -0.325 N 
HETATM   23  C15 UNL     1      22.262   0.119  53.610  1.00  0.00     0.218 C 
HETATM   24  C16 UNL     1      21.396  -0.503  54.658  1.00  0.00     0.117 C 
HETATM   25  O3  UNL     1      23.348  -0.458  53.326  1.00  0.00    -0.274 OA
HETATM   26  H16 UNL     1      20.882   1.729  53.307  1.00  0.00     0.169 HD
ENDBRANCH   6  22
BRANCH   1  27
HETATM   27  O1  UNL     1      21.156   0.855  50.315  1.00  0.00    -0.354 OA
HETATM   28  C1  UNL     1      19.992   1.330  49.642  1.00  0.00     0.210 C 
ENDBRANCH   1  27
TORSDOF 6
ENDMDL
MODEL 2
REMARK VINA RESULT:      -7.6      3.164      5.149
REMARK  6 active torsions:
REMARK  status: ('A' for Active; 'I' for Inactive)
REMARK    1  A    between atoms: O1_2  and  C2_3 
REMARK    2  A    between atoms: C5_6  and  N1_7 
REMARK    3  A    between atoms: C5_6  and  N3_10 
REMARK    4  A    between atoms: C6_8  and  N2_9 
REMARK    5  A    between atoms: N3_10  and  C7_11 
REMARK    6  A    between atoms: C14_20  and  N4_21 
REMARK       I    between atoms: N4_21  and  C15_22 
ROOT
HETATM    1  C2  UNL     1      23.412   0.181  53.221  1.00  0.00     0.091 A 
HETATM    2  C3  UNL     1      22.346   0.883  52.863  1.00  0.00     0.017 A 
HETATM    3  C4  UNL     1      22.279   2.167  52.164  1.00  0.00     0.090 A 
HETATM    4  C5  UNL     1      23.589   2.770  51.803  1.00  0.00     0.149 A 
HETATM    5  C13 UNL     1      24.755   1.955  52.219  1.00  0.00     0.061 A 
HETATM    6  C14 UNL     1      24.705   0.792  52.855  1.00  0.00     0.068 A 
ENDROOT
BRANCH   4   7
HETATM    7  N1  UNL     1      23.746   4.077  52.444  1.00  0.00    -0.254 NA
HETATM    8  C6  UNL     1      22.880   5.011  52.299  1.00  0.00     0.170 C 
BRANCH   8   9
HETATM    9  N2  UNL     1      23.840   5.622  53.144  1.00  0.00    -0.297 NA
HETATM   10  H8  UNL     1      24.813   5.761  52.755  1.00  0.00     0.124 HD
HETATM   11  H9  UNL     1      24.677   6.051  53.615  1.00  0.00     0.124 HD
ENDBRANCH   8   9
ENDBRANCH   4   7
BRANCH   4  12
HETATM   12  N3  UNL     1      23.750   3.008  50.369  1.00  0.00    -0.367 N 
HETATM   13  H10 UNL     1      22.963   3.010  49.676  1.00  0.00     0.161 HD
BRANCH  12  14
HETATM   14  C7  UNL     1      25.063   3.245  49.933  1.00  0.00     0.097 C 
HETATM   15  C8  UNL     1      25.641   4.288  49.393  1.00  0.00    -0.014 A 
HETATM   16  C9  UNL     1      24.846   5.487  49.156  1.00  0.00     0.037 A 
HETATM   17  C12 UNL     1      27.056   4.146  49.071  1.00  0.00     0.082 A 
HETATM   18  C10 UNL     1      25.543   6.491  48.598  1.00  0.00     0.146 A 
HETATM   19  O2  UNL     1      26.901   6.378  48.280  1.00  0.00    -0.297 OA
HETATM   20  C11 UNL     1      27.640   5.221  48.516  1.00  0.00     0.230 A 
HETATM   21  F1  UNL     1      28.955   5.203  48.174  1.00  0.00    -0.178 F 
ENDBRANCH  12  14
ENDBRANCH   4  12
BRANCH   6  22
HETATM   22  N4  UNL     1      25.898   0.089  53.209  1.00  0.00    -0.325 N 
HETATM   23  C15 UNL     1      26.848   0.664  54.112  1.00  0.00     0.218 C 
HETATM   24  C16 UNL     1      28.070  -0.137  54.430  1.00  0.00     0.117 C 
HETATM   25  O3  UNL     1      26.729   1.796  54.657  1.00  0.00    -0.274 OA
HETATM   26  H16 UNL     1      26.088  -0.857  52.809  1.00  0.00     0.169 HD
ENDBRANCH   6  22
BRANCH   1  27
HETATM   27  O1  UNL     1      23.427  -1.045  53.890  1.00  0.00    -0.354 OA
HETATM   28  C1  UNL     1      22.567  -1.265  55.006  1.00  0.00     0.210 C 
ENDBRANCH   1  27
TORSDOF 6
ENDMDL
MODEL 3
REMARK VINA RESULT:      -7.1      2.794      4.704
REMARK  6 active torsions:
REMARK  status: ('A' for Active; 'I' for Inactive)
REMARK    1  A    between atoms: O1_2  and  C2_3 
REMARK    2  A    between atoms: C5_6  and  N1_7 
REMARK    3  A    between atoms: C5_6  and  N3_10 
REMARK    4  A    between atoms: C6_8  and  N2_9 
REMARK    5  A    between atoms: N3_10  and  C7_11 
REMARK    6  A    between atoms: C14_20  and  N4_21 
REMARK       I    between atoms: N4_21  and  C15_22 
ROOT
HETATM    1  C2  UNL     1      23.654   5.082  51.276  1.00  0.00     0.091 A 
HETATM    2  C3  UNL     1      22.681   4.572  52.019  1.00  0.00     0.017 A 
HETATM    3  C4  UNL     1      22.063   3.247  51.948  1.00  0.00     0.090 A 
HETATM    4  C5  UNL     1      22.600   2.344  50.897  1.00  0.00     0.149 A 
HETATM    5  C13 UNL     1      23.685   2.949  50.089  1.00  0.00     0.061 A 
HETATM    6  C14 UNL     1      24.176   4.172  50.236  1.00  0.00     0.068 A 
ENDROOT
BRANCH   4   7
HETATM    7  N1  UNL     1      21.543   1.967  49.956  1.00  0.00    -0.254 NA
HETATM    8  C6  UNL     1      20.375   2.493  50.004  1.00  0.00     0.170 C 
BRANCH   8   9
HETATM    9  N2  UNL     1      20.254   1.596  48.913  1.00  0.00    -0.297 NA
HETATM   10  H8  UNL     1      21.107   1.028  48.654  1.00  0.00     0.124 HD
HETATM   11  H9  UNL     1      20.358   0.887  48.142  1.00  0.00     0.124 HD
ENDBRANCH   8   9
ENDBRANCH   4   7
BRANCH   4  12
HETATM   12  N3  UNL     1      23.134   1.088  51.420  1.00  0.00    -0.367 N 
HETATM   13  H10 UNL     1      22.657   0.158  51.333  1.00  0.00     0.161 HD
BRANCH  12  14
HETATM   14  C7  UNL     1      24.372   1.177  52.076  1.00  0.00     0.097 C 
HETATM   15  C8  UNL     1      24.863   0.565  53.124  1.00  0.00    -0.014 A 
HETATM   16  C9  UNL     1      24.038  -0.419  53.813  1.00  0.00     0.037 A 
HETATM   17  C12 UNL     1      26.219   0.936  53.510  1.00  0.00     0.082 A 
HETATM   18  C10 UNL     1      24.644  -0.981  54.872  1.00  0.00     0.146 A 
HETATM   19  O2  UNL     1      25.945  -0.641  55.261  1.00  0.00    -0.297 OA
HETATM   20  C11 UNL     1      26.714   0.303  54.586  1.00  0.00     0.230 A 
HETATM   21  F1  UNL     1      27.969   0.569  55.038  1.00  0.00    -0.178 F 
ENDBRANCH  12  14
ENDBRANCH   4  12
BRANCH   6  22
HETATM   22  N4  UNL     1      25.228   4.655  49.397  1.00  0.00    -0.325 N 
HETATM   23  C15 UNL     1      26.574   4.203  49.573  1.00  0.00     0.218 C 
HETATM   24  C16 UNL     1      27.614   4.757  48.654  1.00  0.00     0.117 C 
HETATM   25  O3  UNL     1      26.945   3.371  50.447  1.00  0.00    -0.274 OA
HETATM   26  H16 UNL     1      25.021   5.349  48.643  1.00  0.00     0.169 HD
ENDBRANCH   6  22
BRANCH   1  27
HETATM   27  O1  UNL     1      24.214   6.357  51.380  1.00  0.00    -0.354 OA
HETATM   28  C1  UNL     1      23.531   7.487  50.842  1.00  0.00     0.210 C 
ENDBRANCH   1  27
TORSDOF 6
ENDMDL
MODEL 4
REMARK VINA RESULT:      -6.8      1.683      1.914
REMARK  6 active torsions:
REMARK  status: ('A' for Active; 'I' for Inactive)
REMARK    1  A    between atoms: O1_2  and  C2_3 
REMARK    2  A    between atoms: C5_6  and  N1_7 
REMARK    3  A    between atoms: C5_6  and  N3_10 
REMARK    4  A    between atoms: C6_8  and  N2_9 
REMARK    5  A    between atoms: N3_10  and  C7_11 
REMARK    6  A    between atoms: C14_20  and  N4_21 
REMARK       I    between atoms: N4_21  and  C15_22 
ROOT
HETATM    1  C2  UNL     1      22.150   2.666  49.192  1.00  0.00     0.091 A 
HETATM    2  C3  UNL     1      23.251   3.241  48.726  1.00  0.00     0.017 A 
HETATM    3  C4  UNL     1      24.343   3.876  49.465  1.00  0.00     0.090 A 
HETATM    4  C5  UNL     1      24.202   3.877  50.945  1.00  0.00     0.149 A 
HETATM    5  C13 UNL     1      22.961   3.225  51.426  1.00  0.00     0.061 A 
HETATM    6  C14 UNL     1      22.025   2.675  50.663  1.00  0.00     0.068 A 
ENDROOT
BRANCH   4   7
HETATM    7  N1  UNL     1      24.175   5.249  51.457  1.00  0.00    -0.254 NA
HETATM    8  C6  UNL     1      24.403   6.259  50.700  1.00  0.00     0.170 C 
BRANCH   8   9
HETATM    9  N2  UNL     1      24.167   6.872  51.956  1.00  0.00    -0.297 NA
HETATM   10  H8  UNL     1      25.011   7.126  52.540  1.00  0.00     0.124 HD
HETATM   11  H9  UNL     1      24.193   7.329  52.904  1.00  0.00     0.124 HD
ENDBRANCH   8   9
ENDBRANCH   4   7
BRANCH   4  12
HETATM   12  N3  UNL     1      25.305   3.215  51.640  1.00  0.00    -0.367 N 
HETATM   13  H10 UNL     1      26.320   3.409  51.463  1.00  0.00     0.161 HD
BRANCH  12  14
HETATM   14  C7  UNL     1      24.935   2.260  52.600  1.00  0.00     0.097 C 
HETATM   15  C8  UNL     1      25.451   1.107  52.945  1.00  0.00    -0.014 A 
HETATM   16  C9  UNL     1      26.643   0.636  52.252  1.00  0.00     0.037 A 
HETATM   17  C12 UNL     1      24.766   0.388  54.013  1.00  0.00     0.082 A 
HETATM   18  C10 UNL     1      27.082  -0.557  52.688  1.00  0.00     0.146 A 
HETATM   19  O2  UNL     1      26.441  -1.265  53.711  1.00  0.00    -0.297 OA
HETATM   20  C11 UNL     1      25.302  -0.794  54.359  1.00  0.00     0.230 A 
HETATM   21  F1  UNL     1      24.748  -1.552  55.343  1.00  0.00    -0.178 F 
ENDBRANCH  12  14
ENDBRANCH   4  12
BRANCH   6  22
HETATM   22  N4  UNL     1      20.863   2.071  51.236  1.00  0.00    -0.325 N 
HETATM   23  C15 UNL     1      20.919   0.754  51.793  1.00  0.00     0.218 C 
HETATM   24  C16 UNL     1      19.658   0.196  52.371  1.00  0.00     0.117 C 
HETATM   25  O3  UNL     1      21.953   0.032  51.830  1.00  0.00    -0.274 OA
HETATM   26  H16 UNL     1      19.956   2.590  51.251  1.00  0.00     0.169 HD
ENDBRANCH   6  22
BRANCH   1  27
HETATM   27  O1  UNL     1      21.131   2.071  48.446  1.00  0.00    -0.354 OA
HETATM   28  C1  UNL     1      20.261   2.873  47.651  1.00  0.00     0.210 C 
ENDBRANCH   1  27
TORSDOF 6
ENDMDL
MODEL 5
REMARK VINA RESULT:      -6.7      3.417      5.827
REMARK  6 active torsions:
REMARK  status: ('A' for Active; 'I' for Inactive)
REMARK    1  A    between atoms: O1_2  and  C2_3 
REMARK    2  A    between atoms: C5_6  and  N1_7 
REMARK    3  A    between atoms: C5_6  and  N3_10 
REMARK    4  A    between atoms: C6_8  and  N2_9 
REMARK    5  A    between atoms: N3_10  and  C7_11 
REMARK    6  A    between atoms: C14_20  and  N4_21 
REMARK       I    between atoms: N4_21  and  C15_22 
ROOT
HETATM    1  C2  UNL     1      23.357  -0.034  53.006  1.00  0.00     0.091 A 
HETATM    2  C3  UNL     1      24.479   0.397  53.566  1.00  0.00     0.017 A 
HETATM    3  C4  UNL     1      25.206   1.646  53.331  1.00  0.00     0.090 A 
HETATM    4  C5  UNL     1      24.603   2.561  52.326  1.00  0.00     0.149 A 
HETATM    5  C13 UNL     1      23.351   2.044  51.725  1.00  0.00     0.061 A 
HETATM    6  C14 UNL     1      22.770   0.885  52.011  1.00  0.00     0.068 A 
ENDROOT
BRANCH   4   7
HETATM    7  N1  UNL     1      25.532   2.788  51.217  1.00  0.00    -0.254 NA
HETATM    8  C6  UNL     1      26.778   2.499  51.307  1.00  0.00     0.170 C 
BRANCH   8   9
HETATM    9  N2  UNL     1      26.685   3.015  49.991  1.00  0.00    -0.297 NA
HETATM   10  H8  UNL     1      25.747   2.954  49.509  1.00  0.00     0.124 HD
HETATM   11  H9  UNL     1      26.424   3.340  49.024  1.00  0.00     0.124 HD
ENDBRANCH   8   9
ENDBRANCH   4   7
BRANCH   4  12
HETATM   12  N3  UNL     1      24.283   3.885  52.856  1.00  0.00    -0.367 N 
HETATM   13  H10 UNL     1      24.827   4.369  53.611  1.00  0.00     0.161 HD
BRANCH  12  14
HETATM   14  C7  UNL     1      23.165   4.516  52.288  1.00  0.00     0.097 C 
HETATM   15  C8  UNL     1      23.018   5.653  51.655  1.00  0.00    -0.014 A 
HETATM   16  C9  UNL     1      24.186   6.501  51.453  1.00  0.00     0.037 A 
HETATM   17  C12 UNL     1      21.668   5.969  51.204  1.00  0.00     0.082 A 
HETATM   18  C10 UNL     1      23.916   7.640  50.794  1.00  0.00     0.146 A 
HETATM   19  O2  UNL     1      22.629   7.964  50.352  1.00  0.00    -0.297 OA
HETATM   20  C11 UNL     1      21.527   7.138  50.557  1.00  0.00     0.230 A 
HETATM   21  F1  UNL     1      20.313   7.537  50.091  1.00  0.00    -0.178 F 
ENDBRANCH  12  14
ENDBRANCH   4  12
BRANCH   6  22
HETATM   22  N4  UNL     1      21.558   0.485  51.368  1.00  0.00    -0.325 N 
HETATM   23  C15 UNL     1      20.285   0.848  51.910  1.00  0.00     0.218 C 
HETATM   24  C16 UNL     1      19.067   0.389  51.176  1.00  0.00     0.117 C 
HETATM   25  O3  UNL     1      20.118   1.526  52.961  1.00  0.00    -0.274 OA
HETATM   26  H16 UNL     1      21.593  -0.081  50.490  1.00  0.00     0.169 HD
ENDBRANCH   6  22
BRANCH   1  27
HETATM   27  O1  UNL     1      22.697  -1.238  53.263  1.00  0.00    -0.354 OA
HETATM   28  C1  UNL     1      21.965  -1.411  54.474  1.00  0.00     0.210 C 
ENDBRANCH   1  27
TORSDOF 6
ENDMDL
MODEL 6
REMARK VINA RESULT:      -6.7      2.654      4.615
REMARK  6 active torsions:
REMARK  status: ('A' for Active; 'I' for Inactive)
REMARK    1  A    between atoms: O1_2  and  C2_3 
REMARK    2  A    between atoms: C5_6  and  N1_7 
REMARK    3  A    between atoms: C5_6  and  N3_10 
REMARK    4  A    between atoms: C6_8  and  N2_9 
REMARK    5  A    between atoms: N3_10  and  C7_11 
REMARK    6  A    between atoms: C14_20  and  N4_21 
REMARK       I    between atoms: N4_21  and  C15_22 
ROOT
HETATM    1  C2  UNL     1      23.277   4.842  51.059  1.00  0.00     0.091 A 
HETATM    2  C3  UNL     1      23.553   4.413  52.284  1.00  0.00     0.017 A 
HETATM    3  C4  UNL     1      23.886   3.061  52.735  1.00  0.00     0.090 A 
HETATM    4  C5  UNL     1      23.921   2.021  51.673  1.00  0.00     0.149 A 
HETATM    5  C13 UNL     1      23.609   2.539  50.320  1.00  0.00     0.061 A 
HETATM    6  C14 UNL     1      23.317   3.797  50.016  1.00  0.00     0.068 A 
ENDROOT
BRANCH   4   7
HETATM    7  N1  UNL     1      22.940   0.970  51.952  1.00  0.00    -0.254 NA
HETATM    8  C6  UNL     1      22.846   0.420  53.106  1.00  0.00     0.170 C 
BRANCH   8   9
HETATM    9  N2  UNL     1      21.838  -0.253  52.371  1.00  0.00    -0.297 NA
HETATM   10  H8  UNL     1      22.127  -0.730  51.473  1.00  0.00     0.124 HD
HETATM   11  H9  UNL     1      21.239  -0.795  51.697  1.00  0.00     0.124 HD
ENDBRANCH   8   9
ENDBRANCH   4   7
BRANCH   4  12
HETATM   12  N3  UNL     1      25.211   1.341  51.561  1.00  0.00    -0.367 N 
HETATM   13  H10 UNL     1      25.381   0.485  50.979  1.00  0.00     0.161 HD
BRANCH  12  14
HETATM   14  C7  UNL     1      26.264   1.905  52.297  1.00  0.00     0.097 C 
HETATM   15  C8  UNL     1      27.263   1.376  52.958  1.00  0.00    -0.014 A 
HETATM   16  C9  UNL     1      27.390  -0.075  52.996  1.00  0.00     0.037 A 
HETATM   17  C12 UNL     1      28.173   2.312  53.609  1.00  0.00     0.082 A 
HETATM   18  C10 UNL     1      28.450  -0.504  53.702  1.00  0.00     0.146 A 
HETATM   19  O2  UNL     1      29.335   0.376  54.335  1.00  0.00    -0.297 OA
HETATM   20  C11 UNL     1      29.193   1.760  54.285  1.00  0.00     0.230 A 
HETATM   21  F1  UNL     1      30.104   2.535  54.931  1.00  0.00    -0.178 F 
ENDBRANCH  12  14
ENDBRANCH   4  12
BRANCH   6  22
HETATM   22  N4  UNL     1      23.031   4.188  48.672  1.00  0.00    -0.325 N 
HETATM   23  C15 UNL     1      21.700   4.109  48.152  1.00  0.00     0.218 C 
HETATM   24  C16 UNL     1      21.486   4.537  46.736  1.00  0.00     0.117 C 
HETATM   25  O3  UNL     1      20.697   3.705  48.802  1.00  0.00    -0.274 OA
HETATM   26  H16 UNL     1      23.797   4.537  48.052  1.00  0.00     0.169 HD
ENDBRANCH   6  22
BRANCH   1  27
HETATM   27  O1  UNL     1      22.964   6.147  50.675  1.00  0.00    -0.354 OA
HETATM   28  C1  UNL     1      21.666   6.679  50.930  1.00  0.00     0.210 C 
ENDBRANCH   1  27
TORSDOF 6
ENDMDL
MODEL 7
REMARK VINA RESULT:      -6.7      2.024      3.036
REMARK  6 active torsions:
REMARK  status: ('A' for Active; 'I' for Inactive)
REMARK    1  A    between atoms: O1_2  and  C2_3 
REMARK    2  A    between atoms: C5_6  and  N1_7 
REMARK    3  A    between atoms: C5_6  and  N3_10 
REMARK    4  A    between atoms: C6_8  and  N2_9 
REMARK    5  A    between atoms: N3_10  and  C7_11 
REMARK    6  A    between atoms: C14_20  and  N4_21 
REMARK       I    between atoms: N4_21  and  C15_22 
ROOT
HETATM    1  C2  UNL     1      22.152   3.282  49.494  1.00  0.00     0.091 A 
HETATM    2  C3  UNL     1      23.475   3.327  49.579  1.00  0.00     0.017 A 
HETATM    3  C4  UNL     1      24.313   4.015  50.562  1.00  0.00     0.090 A 
HETATM    4  C5  UNL     1      23.582   4.770  51.613  1.00  0.00     0.149 A 
HETATM    5  C13 UNL     1      22.108   4.695  51.484  1.00  0.00     0.061 A 
HETATM    6  C14 UNL     1      21.441   4.037  50.546  1.00  0.00     0.068 A 
ENDROOT
BRANCH   4   7
HETATM    7  N1  UNL     1      23.932   6.191  51.560  1.00  0.00    -0.254 NA
HETATM    8  C6  UNL     1      24.727   6.661  50.671  1.00  0.00     0.170 C 
BRANCH   8   9
HETATM    9  N2  UNL     1      24.396   7.819  51.418  1.00  0.00    -0.297 NA
HETATM   10  H8  UNL     1      25.195   8.387  51.815  1.00  0.00     0.124 HD
HETATM   11  H9  UNL     1      24.350   8.699  51.993  1.00  0.00     0.124 HD
ENDBRANCH   8   9
ENDBRANCH   4   7
BRANCH   4  12
HETATM   12  N3  UNL     1      23.894   4.334  52.973  1.00  0.00    -0.367 N 
HETATM   13  H10 UNL     1      23.586   4.834  53.842  1.00  0.00     0.161 HD
BRANCH  12  14
HETATM   14  C7  UNL     1      24.661   3.162  53.077  1.00  0.00     0.097 C 
HETATM   15  C8  UNL     1      24.337   1.894  53.118  1.00  0.00    -0.014 A 
HETATM   16  C9  UNL     1      22.928   1.527  53.050  1.00  0.00     0.037 A 
HETATM   17  C12 UNL     1      25.442   0.950  53.233  1.00  0.00     0.082 A 
HETATM   18  C10 UNL     1      22.715   0.202  53.102  1.00  0.00     0.146 A 
HETATM   19  O2  UNL     1      23.759  -0.723  53.211  1.00  0.00    -0.297 OA
HETATM   20  C11 UNL     1      25.099  -0.348  53.275  1.00  0.00     0.230 A 
HETATM   21  F1  UNL     1      26.046  -1.318  53.381  1.00  0.00    -0.178 F 
ENDBRANCH  12  14
ENDBRANCH   4  12
BRANCH   6  22
HETATM   22  N4  UNL     1      20.011   4.032  50.517  1.00  0.00    -0.325 N 
HETATM   23  C15 UNL     1      19.258   3.435  51.576  1.00  0.00     0.218 C 
HETATM   24  C16 UNL     1      17.767   3.473  51.468  1.00  0.00     0.117 C 
HETATM   25  O3  UNL     1      19.760   2.881  52.593  1.00  0.00    -0.274 OA
HETATM   26  H16 UNL     1      19.502   4.467  49.715  1.00  0.00     0.169 HD
ENDBRANCH   6  22
BRANCH   1  27
HETATM   27  O1  UNL     1      21.392   2.609  48.535  1.00  0.00    -0.354 OA
HETATM   28  C1  UNL     1      21.469   1.190  48.426  1.00  0.00     0.210 C 
ENDBRANCH   1  27
TORSDOF 6
ENDMDL
MODEL 8
REMARK VINA RESULT:      -6.5      2.479      3.909
REMARK  6 active torsions:
REMARK  status: ('A' for Active; 'I' for Inactive)
REMARK    1  A    between atoms: O1_2  and  C2_3 
REMARK    2  A    between atoms: C5_6  and  N1_7 
REMARK    3  A    between atoms: C5_6  and  N3_10 
REMARK    4  A    between atoms: C6_8  and  N2_9 
REMARK    5  A    between atoms: N3_10  and  C7_11 
REMARK    6  A    between atoms: C14_20  and  N4_21 
REMARK       I    between atoms: N4_21  and  C15_22 
ROOT
HETATM    1  C2  UNL     1      22.412   3.975  49.207  1.00  0.00     0.091 A 
HETATM    2  C3  UNL     1      23.307   3.055  48.871  1.00  0.00     0.017 A 
HETATM    3  C4  UNL     1      24.684   2.894  49.340  1.00  0.00     0.090 A 
HETATM    4  C5  UNL     1      25.146   3.899  50.333  1.00  0.00     0.149 A 
HETATM    5  C13 UNL     1      24.118   4.907  50.683  1.00  0.00     0.061 A 
HETATM    6  C14 UNL     1      22.886   4.965  50.194  1.00  0.00     0.068 A 
ENDROOT
BRANCH   4   7
HETATM    7  N1  UNL     1      26.296   4.642  49.813  1.00  0.00    -0.254 NA
HETATM    8  C6  UNL     1      26.164   5.567  48.936  1.00  0.00     0.170 C 
BRANCH   8   9
HETATM    9  N2  UNL     1      27.565   5.557  49.151  1.00  0.00    -0.297 NA
HETATM   10  H8  UNL     1      27.914   5.156  50.064  1.00  0.00     0.124 HD
HETATM   11  H9  UNL     1      28.558   5.465  49.487  1.00  0.00     0.124 HD
ENDBRANCH   8   9
ENDBRANCH   4   7
BRANCH   4  12
HETATM   12  N3  UNL     1      25.589   3.314  51.597  1.00  0.00    -0.367 N 
HETATM   13  H10 UNL     1      25.617   3.828  52.511  1.00  0.00     0.161 HD
BRANCH  12  14
HETATM   14  C7  UNL     1      25.995   1.971  51.540  1.00  0.00     0.097 C 
HETATM   15  C8  UNL     1      26.274   1.091  52.468  1.00  0.00    -0.014 A 
HETATM   16  C9  UNL     1      26.174   1.490  53.866  1.00  0.00     0.037 A 
HETATM   17  C12 UNL     1      26.669  -0.233  52.002  1.00  0.00     0.082 A 
HETATM   18  C10 UNL     1      26.484   0.507  54.728  1.00  0.00     0.146 A 
HETATM   19  O2  UNL     1      26.865  -0.771  54.305  1.00  0.00    -0.297 OA
HETATM   20  C11 UNL     1      26.955  -1.129  52.962  1.00  0.00     0.230 A 
HETATM   21  F1  UNL     1      27.334  -2.395  52.645  1.00  0.00    -0.178 F 
ENDBRANCH  12  14
ENDBRANCH   4  12
BRANCH   6  22
HETATM   22  N4  UNL     1      21.973   5.986  50.604  1.00  0.00    -0.325 N 
HETATM   23  C15 UNL     1      21.869   7.213  49.876  1.00  0.00     0.218 C 
HETATM   24  C16 UNL     1      20.890   8.228  50.372  1.00  0.00     0.117 C 
HETATM   25  O3  UNL     1      22.544   7.500  48.849  1.00  0.00    -0.274 OA
HETATM   26  H16 UNL     1      21.369   5.842  51.445  1.00  0.00     0.169 HD
ENDBRANCH   6  22
BRANCH   1  27
HETATM   27  O1  UNL     1      21.104   4.090  48.731  1.00  0.00    -0.354 OA
HETATM   28  C1  UNL     1      20.861   4.541  47.400  1.00  0.00     0.210 C 
ENDBRANCH   1  27
TORSDOF 6
ENDMDL
MODEL 9
REMARK VINA RESULT:      -6.5     10.876     12.468
REMARK  6 active torsions:
REMARK  status: ('A' for Active; 'I' for Inactive)
REMARK    1  A    between atoms: O1_2  and  C2_3 
REMARK    2  A    between atoms: C5_6  and  N1_7 
REMARK    3  A    between atoms: C5_6  and  N3_10 
REMARK    4  A    between atoms: C6_8  and  N2_9 
REMARK    5  A    between atoms: N3_10  and  C7_11 
REMARK    6  A    between atoms: C14_20  and  N4_21 
REMARK       I    between atoms: N4_21  and  C15_22 
ROOT
HETATM    1  C2  UNL     1      31.470   5.904  47.911  1.00  0.00     0.091 A 
HETATM    2  C3  UNL     1      31.437   7.149  47.455  1.00  0.00     0.017 A 
HETATM    3  C4  UNL     1      32.520   7.951  46.885  1.00  0.00     0.090 A 
HETATM    4  C5  UNL     1      33.843   7.279  46.803  1.00  0.00     0.149 A 
HETATM    5  C13 UNL     1      33.839   5.890  47.320  1.00  0.00     0.061 A 
HETATM    6  C14 UNL     1      32.791   5.249  47.822  1.00  0.00     0.068 A 
ENDROOT
BRANCH   4   7
HETATM    7  N1  UNL     1      34.840   8.010  47.587  1.00  0.00    -0.254 NA
HETATM    8  C6  UNL     1      35.586   7.425  48.449  1.00  0.00     0.170 C 
BRANCH   8   9
HETATM    9  N2  UNL     1      36.021   8.771  48.543  1.00  0.00    -0.297 NA
HETATM   10  H8  UNL     1      36.404   9.095  49.473  1.00  0.00     0.124 HD
HETATM   11  H9  UNL     1      36.387   9.722  48.803  1.00  0.00     0.124 HD
ENDBRANCH   8   9
ENDBRANCH   4   7
BRANCH   4  12
HETATM   12  N3  UNL     1      34.380   7.205  45.445  1.00  0.00    -0.367 N 
HETATM   13  H10 UNL     1      35.122   7.841  45.065  1.00  0.00     0.161 HD
BRANCH  12  14
HETATM   14  C7  UNL     1      33.838   6.201  44.627  1.00  0.00     0.097 C 
HETATM   15  C8  UNL     1      34.123   5.798  43.415  1.00  0.00    -0.014 A 
HETATM   16  C9  UNL     1      35.198   6.463  42.688  1.00  0.00     0.037 A 
HETATM   17  C12 UNL     1      33.318   4.699  42.895  1.00  0.00     0.082 A 
HETATM   18  C10 UNL     1      35.399   5.968  41.456  1.00  0.00     0.146 A 
HETATM   19  O2  UNL     1      34.639   4.914  40.936  1.00  0.00    -0.297 OA
HETATM   20  C11 UNL     1      33.617   4.294  41.649  1.00  0.00     0.230 A 
HETATM   21  F1  UNL     1      32.932   3.277  41.062  1.00  0.00    -0.178 F 
ENDBRANCH  12  14
ENDBRANCH   4  12
BRANCH   6  22
HETATM   22  N4  UNL     1      32.901   3.904  48.294  1.00  0.00    -0.325 N 
HETATM   23  C15 UNL     1      32.794   2.799  47.393  1.00  0.00     0.218 C 
HETATM   24  C16 UNL     1      32.919   1.425  47.968  1.00  0.00     0.117 C 
HETATM   25  O3  UNL     1      32.601   2.900  46.150  1.00  0.00    -0.274 OA
HETATM   26  H16 UNL     1      33.060   3.717  49.310  1.00  0.00     0.169 HD
ENDBRANCH   6  22
BRANCH   1  27
HETATM   27  O1  UNL     1      30.407   5.175  48.449  1.00  0.00    -0.354 OA
HETATM   28  C1  UNL     1      29.066   5.630  48.278  1.00  0.00     0.210 C 
ENDBRANCH   1  27
TORSDOF 6
ENDMDL
