MODEL 1
REMARK VINA RESULT:      -8.6      0.000      0.000
REMARK  6 active torsions:
REMARK  status: ('A' for Active; 'I' for Inactive)
REMARK    1  A    between atoms: O1_2  and  C2_3 
REMARK    2  A    between atoms: N2_9  and  C7_10 
REMARK    3  A    between atoms: C10_13  and  C11_14 
REMARK    4  A    between atoms: C19_23  and  O2_24 
REMARK    5  A    between atoms: C22_27  and  O3_28 
REMARK    6  A    between atoms: O3_28  and  C23_29 
ROOT
HETATM    1  C2  UNL     1      26.967  -0.171  53.787  1.00  0.00     0.103 C 
HETATM    2  C3  UNL     1      25.832  -0.772  54.097  1.00  0.00     0.069 C 
HETATM    3  C4  UNL     1      24.535  -0.309  53.600  1.00  0.00     0.064 C 
HETATM    4  N1  UNL     1      23.390  -0.805  53.833  1.00  0.00    -0.262 NA
HETATM    5  C5  UNL     1      22.201  -0.238  53.312  1.00  0.00     0.134 C 
HETATM    6  C6  UNL     1      22.182   0.857  52.572  1.00  0.00     0.112 C 
HETATM    7  N2  UNL     1      23.423   1.494  52.309  1.00  0.00    -0.339 N 
HETATM    8  C20 UNL     1      24.575   0.728  52.556  1.00  0.00     0.167 C 
HETATM    9  C21 UNL     1      25.892   1.350  52.344  1.00  0.00     0.045 C 
HETATM   10  C22 UNL     1      27.029   0.965  52.879  1.00  0.00     0.108 C 
ENDROOT
BRANCH   7  11
HETATM   11  C7  UNL     1      23.472   2.829  51.828  1.00  0.00     0.068 A 
HETATM   12  C8  UNL     1      23.673   3.761  52.833  1.00  0.00     0.033 A 
HETATM   13  C9  UNL     1      23.744   5.107  52.520  1.00  0.00     0.011 A 
HETATM   14  C10 UNL     1      23.610   5.477  51.197  1.00  0.00    -0.037 A 
HETATM   15  C18 UNL     1      23.412   4.549  50.209  1.00  0.00     0.047 A 
HETATM   16  C19 UNL     1      23.340   3.200  50.504  1.00  0.00     0.093 A 
BRANCH  14  17
HETATM   17  C11 UNL     1      23.688   6.954  50.851  1.00  0.00     0.119 A 
HETATM   18  S1  UNL     1      22.449   7.526  49.740  1.00  0.00    -0.115 SA
HETATM   19  C12 UNL     1      23.974   7.621  48.910  1.00  0.00     0.009 A 
HETATM   20  C13 UNL     1      24.484   8.000  47.681  1.00  0.00     0.019 A 
HETATM   21  C17 UNL     1      24.727   7.160  49.897  1.00  0.00    -0.023 A 
HETATM   22  C14 UNL     1      25.855   7.906  47.426  1.00  0.00     0.001 A 
HETATM   23  C15 UNL     1      26.690   7.426  48.433  1.00  0.00     0.001 A 
HETATM   24  C16 UNL     1      26.096   7.069  49.638  1.00  0.00     0.010 A 
ENDBRANCH  14  17
BRANCH  16  25
HETATM   25  O2  UNL     1      23.142   2.196  49.565  1.00  0.00    -0.358 OA
HETATM   26  H15 UNL     1      22.428   2.297  48.862  1.00  0.00     0.217 HD
ENDBRANCH  16  25
ENDBRANCH   7  11
BRANCH  10  27
HETATM   27  O3  UNL     1      28.219   1.621  52.583  1.00  0.00    -0.302 OA
BRANCH  27  28
HETATM   28  C23 UNL     1      28.623   2.607  53.495  1.00  0.00     0.250 C 
HETATM   29  N3  UNL     1      29.397   2.301  54.475  1.00  0.00    -0.289 NA
HETATM   30  H19 UNL     1      29.696   1.314  54.551  1.00  0.00     0.188 HD
ENDBRANCH  27  28
ENDBRANCH  10  27
BRANCH   1  31
HETATM   31  O1  UNL     1      28.183  -0.619  54.298  1.00  0.00    -0.353 OA
HETATM   32  C1  UNL     1      29.099  -1.383  53.501  1.00  0.00     0.210 C 
ENDBRANCH   1  31
TORSDOF 6
ENDMDL
MODEL 2
REMARK VINA RESULT:      -8.5      1.529      2.283
REMARK  6 active torsions:
REMARK  status: ('A' for Active; 'I' for Inactive)
REMARK    1  A    between atoms: O1_2  and  C2_3 
REMARK    2  A    between atoms: N2_9  and  C7_10 
REMARK    3  A    between atoms: C10_13  and  C11_14 
REMARK    4  A    between atoms: C19_23  and  O2_24 
REMARK    5  A    between atoms: C22_27  and  O3_28 
REMARK    6  A    between atoms: O3_28  and  C23_29 
ROOT
HETATM    1  C2  UNL     1      26.948  -0.042  53.709  1.00  0.00     0.103 C 
HETATM    2  C3  UNL     1      25.759  -0.593  53.878  1.00  0.00     0.069 C 
HETATM    3  C4  UNL     1      24.565  -0.114  53.181  1.00  0.00     0.064 C 
HETATM    4  N1  UNL     1      23.380  -0.562  53.268  1.00  0.00    -0.262 NA
HETATM    5  C5  UNL     1      22.299   0.017  52.559  1.00  0.00     0.134 C 
HETATM    6  C6  UNL     1      22.426   1.077  51.780  1.00  0.00     0.112 C 
HETATM    7  N2  UNL     1      23.715   1.663  51.672  1.00  0.00    -0.339 N 
HETATM    8  C20 UNL     1      24.791   0.873  52.113  1.00  0.00     0.167 C 
HETATM    9  C21 UNL     1      26.147   1.444  52.067  1.00  0.00     0.045 C 
HETATM   10  C22 UNL     1      27.181   1.048  52.775  1.00  0.00     0.108 C 
ENDROOT
BRANCH   7  11
HETATM   11  C7  UNL     1      23.882   2.972  51.149  1.00  0.00     0.068 A 
HETATM   12  C8  UNL     1      23.891   3.006  49.764  1.00  0.00     0.033 A 
HETATM   13  C9  UNL     1      24.045   4.213  49.105  1.00  0.00     0.011 A 
HETATM   14  C10 UNL     1      24.188   5.356  49.864  1.00  0.00    -0.037 A 
HETATM   15  C18 UNL     1      24.179   5.314  51.233  1.00  0.00     0.047 A 
HETATM   16  C19 UNL     1      24.025   4.117  51.908  1.00  0.00     0.093 A 
BRANCH  14  17
HETATM   17  C11 UNL     1      24.359   6.683  49.143  1.00  0.00     0.119 A 
HETATM   18  S1  UNL     1      24.462   8.093  50.191  1.00  0.00    -0.115 SA
HETATM   19  C12 UNL     1      22.972   8.214  49.304  1.00  0.00     0.009 A 
HETATM   20  C13 UNL     1      21.883   9.059  49.182  1.00  0.00     0.019 A 
HETATM   21  C17 UNL     1      23.101   7.093  48.611  1.00  0.00    -0.023 A 
HETATM   22  C14 UNL     1      20.847   8.753  48.295  1.00  0.00     0.001 A 
HETATM   23  C15 UNL     1      20.937   7.583  47.542  1.00  0.00     0.001 A 
HETATM   24  C16 UNL     1      22.064   6.792  47.726  1.00  0.00     0.010 A 
ENDBRANCH  14  17
BRANCH  16  25
HETATM   25  O2  UNL     1      24.004   3.987  53.290  1.00  0.00    -0.358 OA
HETATM   26  H15 UNL     1      23.625   4.724  53.861  1.00  0.00     0.217 HD
ENDBRANCH  16  25
ENDBRANCH   7  11
BRANCH  10  27
HETATM   27  O3  UNL     1      28.425   1.653  52.626  1.00  0.00    -0.302 OA
BRANCH  27  28
HETATM   28  C23 UNL     1      28.765   2.611  53.592  1.00  0.00     0.250 C 
HETATM   29  N3  UNL     1      29.565   2.306  54.551  1.00  0.00    -0.289 NA
HETATM   30  H19 UNL     1      29.935   1.340  54.569  1.00  0.00     0.188 HD
ENDBRANCH  27  28
ENDBRANCH  10  27
BRANCH   1  31
HETATM   31  O1  UNL     1      28.062  -0.504  54.408  1.00  0.00    -0.353 OA
HETATM   32  C1  UNL     1      29.116  -1.225  53.753  1.00  0.00     0.210 C 
ENDBRANCH   1  31
TORSDOF 6
ENDMDL
MODEL 3
REMARK VINA RESULT:      -8.4      5.329      9.221
REMARK  6 active torsions:
REMARK  status: ('A' for Active; 'I' for Inactive)
REMARK    1  A    between atoms: O1_2  and  C2_3 
REMARK    2  A    between atoms: N2_9  and  C7_10 
REMARK    3  A    between atoms: C10_13  and  C11_14 
REMARK    4  A    between atoms: C19_23  and  O2_24 
REMARK    5  A    between atoms: C22_27  and  O3_28 
REMARK    6  A    between atoms: O3_28  and  C23_29 
ROOT
HETATM    1  C2  UNL     1      32.544   8.889  47.668  1.00  0.00     0.103 C 
HETATM    2  C3  UNL     1      32.245  10.164  47.493  1.00  0.00     0.069 C 
HETATM    3  C4  UNL     1      30.945  10.725  47.865  1.00  0.00     0.064 C 
HETATM    4  N1  UNL     1      30.550  11.925  47.741  1.00  0.00    -0.262 NA
HETATM    5  C5  UNL     1      29.246  12.334  48.113  1.00  0.00     0.134 C 
HETATM    6  C6  UNL     1      28.332  11.505  48.587  1.00  0.00     0.112 C 
HETATM    7  N2  UNL     1      28.687  10.135  48.708  1.00  0.00    -0.339 N 
HETATM    8  C20 UNL     1      30.061   9.846  48.648  1.00  0.00     0.167 C 
HETATM    9  C21 UNL     1      30.487   8.439  48.723  1.00  0.00     0.045 C 
HETATM   10  C22 UNL     1      31.629   7.949  48.297  1.00  0.00     0.108 C 
ENDROOT
BRANCH   7  11
HETATM   11  C7  UNL     1      27.694   9.135  48.876  1.00  0.00     0.068 A 
HETATM   12  C8  UNL     1      27.342   8.515  47.688  1.00  0.00     0.033 A 
HETATM   13  C9  UNL     1      26.384   7.516  47.690  1.00  0.00     0.011 A 
HETATM   14  C10 UNL     1      25.807   7.169  48.894  1.00  0.00    -0.037 A 
HETATM   15  C18 UNL     1      26.160   7.786  50.065  1.00  0.00     0.047 A 
HETATM   16  C19 UNL     1      27.116   8.786  50.081  1.00  0.00     0.093 A 
BRANCH  14  17
HETATM   17  C11 UNL     1      24.755   6.072  48.899  1.00  0.00     0.119 A 
HETATM   18  S1  UNL     1      23.545   6.204  50.170  1.00  0.00    -0.115 SA
HETATM   19  C12 UNL     1      24.501   4.791  50.507  1.00  0.00     0.009 A 
HETATM   20  C13 UNL     1      24.589   3.777  51.445  1.00  0.00     0.019 A 
HETATM   21  C17 UNL     1      25.312   4.888  49.466  1.00  0.00    -0.023 A 
HETATM   22  C14 UNL     1      25.567   2.786  51.323  1.00  0.00     0.001 A 
HETATM   23  C15 UNL     1      26.446   2.844  50.243  1.00  0.00     0.001 A 
HETATM   24  C16 UNL     1      26.287   3.896  49.348  1.00  0.00     0.010 A 
ENDBRANCH  14  17
BRANCH  16  25
HETATM   25  O2  UNL     1      27.531   9.462  51.221  1.00  0.00    -0.358 OA
HETATM   26  H15 UNL     1      26.983  10.224  51.583  1.00  0.00     0.217 HD
ENDBRANCH  16  25
ENDBRANCH   7  11
BRANCH  10  27
HETATM   27  O3  UNL     1      31.930   6.599  48.445  1.00  0.00    -0.302 OA
BRANCH  27  28
HETATM   28  C23 UNL     1      32.208   6.169  49.751  1.00  0.00     0.250 C 
HETATM   29  N3  UNL     1      31.377   5.409  50.371  1.00  0.00    -0.289 NA
HETATM   30  H19 UNL     1      30.516   5.139  49.867  1.00  0.00     0.188 HD
ENDBRANCH  27  28
ENDBRANCH  10  27
BRANCH   1  31
HETATM   31  O1  UNL     1      33.781   8.380  47.279  1.00  0.00    -0.353 OA
HETATM   32  C1  UNL     1      34.713   9.163  46.520  1.00  0.00     0.210 C 
ENDBRANCH   1  31
TORSDOF 6
ENDMDL
MODEL 4
REMARK VINA RESULT:      -8.2      1.364      1.542
REMARK  6 active torsions:
REMARK  status: ('A' for Active; 'I' for Inactive)
REMARK    1  A    between atoms: O1_2  and  C2_3 
REMARK    2  A    between atoms: N2_9  and  C7_10 
REMARK    3  A    between atoms: C10_13  and  C11_14 
REMARK    4  A    between atoms: C19_23  and  O2_24 
REMARK    5  A    between atoms: C22_27  and  O3_28 
REMARK    6  A    between atoms: O3_28  and  C23_29 
ROOT
HETATM    1  C2  UNL     1      25.983  -0.401  53.793  1.00  0.00     0.103 C 
HETATM    2  C3  UNL     1      24.915  -0.816  54.451  1.00  0.00     0.069 C 
HETATM    3  C4  UNL     1      23.560  -0.391  54.098  1.00  0.00     0.064 C 
HETATM    4  N1  UNL     1      22.470  -0.722  54.658  1.00  0.00    -0.262 NA
HETATM    5  C5  UNL     1      21.218  -0.211  54.236  1.00  0.00     0.134 C 
HETATM    6  C6  UNL     1      21.084   0.665  53.255  1.00  0.00     0.112 C 
HETATM    7  N2  UNL     1      22.266   1.118  52.613  1.00  0.00    -0.339 N 
HETATM    8  C20 UNL     1      23.422   0.349  52.834  1.00  0.00     0.167 C 
HETATM    9  C21 UNL     1      24.689   0.794  52.230  1.00  0.00     0.045 C 
HETATM   10  C22 UNL     1      25.897   0.466  52.627  1.00  0.00     0.108 C 
ENDROOT
BRANCH   7  11
HETATM   11  C7  UNL     1      22.258   2.284  51.803  1.00  0.00     0.068 A 
HETATM   12  C8  UNL     1      22.423   3.451  52.531  1.00  0.00     0.033 A 
HETATM   13  C9  UNL     1      22.436   4.672  51.880  1.00  0.00     0.011 A 
HETATM   14  C10 UNL     1      22.282   4.682  50.509  1.00  0.00    -0.037 A 
HETATM   15  C18 UNL     1      22.120   3.523  49.796  1.00  0.00     0.047 A 
HETATM   16  C19 UNL     1      22.105   2.295  50.430  1.00  0.00     0.093 A 
BRANCH  14  17
HETATM   17  C11 UNL     1      22.297   6.022  49.792  1.00  0.00     0.119 A 
HETATM   18  S1  UNL     1      22.324   5.927  48.035  1.00  0.00    -0.115 SA
HETATM   19  C12 UNL     1      23.849   6.590  48.543  1.00  0.00     0.009 A 
HETATM   20  C13 UNL     1      25.035   7.049  47.996  1.00  0.00     0.019 A 
HETATM   21  C17 UNL     1      23.612   6.570  49.845  1.00  0.00    -0.023 A 
HETATM   22  C14 UNL     1      26.057   7.523  48.823  1.00  0.00     0.001 A 
HETATM   23  C15 UNL     1      25.856   7.522  50.202  1.00  0.00     0.001 A 
HETATM   24  C16 UNL     1      24.636   7.045  50.667  1.00  0.00     0.010 A 
ENDBRANCH  14  17
BRANCH  16  25
HETATM   25  O2  UNL     1      21.945   1.075  49.785  1.00  0.00    -0.358 OA
HETATM   26  H15 UNL     1      21.109   0.534  49.929  1.00  0.00     0.217 HD
ENDBRANCH  16  25
ENDBRANCH   7  11
BRANCH  10  27
HETATM   27  O3  UNL     1      27.024   0.933  51.958  1.00  0.00    -0.302 OA
BRANCH  27  28
HETATM   28  C23 UNL     1      27.253   2.315  52.026  1.00  0.00     0.250 C 
HETATM   29  N3  UNL     1      28.295   2.768  52.629  1.00  0.00    -0.289 NA
HETATM   30  H19 UNL     1      28.937   2.074  53.048  1.00  0.00     0.188 HD
ENDBRANCH  27  28
ENDBRANCH  10  27
BRANCH   1  31
HETATM   31  O1  UNL     1      27.263  -0.803  54.170  1.00  0.00    -0.353 OA
HETATM   32  C1  UNL     1      28.119   0.045  54.948  1.00  0.00     0.210 C 
ENDBRANCH   1  31
TORSDOF 6
ENDMDL
MODEL 5
REMARK VINA RESULT:      -7.9      3.466      6.407
REMARK  6 active torsions:
REMARK  status: ('A' for Active; 'I' for Inactive)
REMARK    1  A    between atoms: O1_2  and  C2_3 
REMARK    2  A    between atoms: N2_9  and  C7_10 
REMARK    3  A    between atoms: C10_13  and  C11_14 
REMARK    4  A    between atoms: C19_23  and  O2_24 
REMARK    5  A    between atoms: C22_27  and  O3_28 
REMARK    6  A    between atoms: O3_28  and  C23_29 
ROOT
HETATM    1  C2  UNL     1      26.001  -0.192  52.847  1.00  0.00     0.103 C 
HETATM    2  C3  UNL     1      26.754   0.696  52.220  1.00  0.00     0.069 C 
HETATM    3  C4  UNL     1      26.189   1.851  51.520  1.00  0.00     0.064 C 
HETATM    4  N1  UNL     1      26.812   2.758  50.888  1.00  0.00    -0.262 NA
HETATM    5  C5  UNL     1      26.139   3.812  50.222  1.00  0.00     0.134 C 
HETATM    6  C6  UNL     1      24.823   3.921  50.178  1.00  0.00     0.112 C 
HETATM    7  N2  UNL     1      24.058   2.913  50.823  1.00  0.00    -0.339 N 
HETATM    8  C20 UNL     1      24.754   2.098  51.732  1.00  0.00     0.167 C 
HETATM    9  C21 UNL     1      24.024   1.007  52.399  1.00  0.00     0.045 C 
HETATM   10  C22 UNL     1      24.555  -0.065  52.941  1.00  0.00     0.108 C 
ENDROOT
BRANCH   7  11
HETATM   11  C7  UNL     1      22.675   2.756  50.547  1.00  0.00     0.068 A 
HETATM   12  C8  UNL     1      22.426   1.891  49.494  1.00  0.00     0.033 A 
HETATM   13  C9  UNL     1      21.123   1.636  49.105  1.00  0.00     0.011 A 
HETATM   14  C10 UNL     1      20.103   2.262  49.792  1.00  0.00    -0.037 A 
HETATM   15  C18 UNL     1      20.357   3.115  50.833  1.00  0.00     0.047 A 
HETATM   16  C19 UNL     1      21.653   3.381  51.235  1.00  0.00     0.093 A 
BRANCH  14  17
HETATM   17  C11 UNL     1      18.671   1.982  49.367  1.00  0.00     0.119 A 
HETATM   18  S1  UNL     1      17.523   3.266  49.728  1.00  0.00    -0.115 SA
HETATM   19  C12 UNL     1      17.110   1.904  50.727  1.00  0.00     0.009 A 
HETATM   20  C13 UNL     1      16.180   1.543  51.686  1.00  0.00     0.019 A 
HETATM   21  C17 UNL     1      18.067   1.093  50.304  1.00  0.00    -0.023 A 
HETATM   22  C14 UNL     1      16.218   0.270  52.262  1.00  0.00     0.001 A 
HETATM   23  C15 UNL     1      17.207  -0.621  51.850  1.00  0.00     0.001 A 
HETATM   24  C16 UNL     1      18.100  -0.178  50.881  1.00  0.00     0.010 A 
ENDBRANCH  14  17
BRANCH  16  25
HETATM   25  O2  UNL     1      21.997   4.232  52.277  1.00  0.00    -0.358 OA
HETATM   26  H15 UNL     1      22.699   3.954  52.944  1.00  0.00     0.217 HD
ENDBRANCH  16  25
ENDBRANCH   7  11
BRANCH  10  27
HETATM   27  O3  UNL     1      23.760  -1.020  53.567  1.00  0.00    -0.302 OA
BRANCH  27  28
HETATM   28  C23 UNL     1      22.614  -0.539  54.218  1.00  0.00     0.250 C 
HETATM   29  N3  UNL     1      22.015  -1.267  55.092  1.00  0.00    -0.289 NA
HETATM   30  H19 UNL     1      22.415  -2.201  55.284  1.00  0.00     0.188 HD
ENDBRANCH  27  28
ENDBRANCH  10  27
BRANCH   1  31
HETATM   31  O1  UNL     1      26.567  -1.295  53.482  1.00  0.00    -0.353 OA
HETATM   32  C1  UNL     1      27.278  -2.303  52.750  1.00  0.00     0.210 C 
ENDBRANCH   1  31
TORSDOF 6
ENDMDL
MODEL 6
REMARK VINA RESULT:      -7.8      3.344      7.513
REMARK  6 active torsions:
REMARK  status: ('A' for Active; 'I' for Inactive)
REMARK    1  A    between atoms: O1_2  and  C2_3 
REMARK    2  A    between atoms: N2_9  and  C7_10 
REMARK    3  A    between atoms: C10_13  and  C11_14 
REMARK    4  A    between atoms: C19_23  and  O2_24 
REMARK    5  A    between atoms: C22_27  and  O3_28 
REMARK    6  A    between atoms: O3_28  and  C23_29 
ROOT
HETATM    1  C2  UNL     1      24.233   7.184  47.736  1.00  0.00     0.103 C 
HETATM    2  C3  UNL     1      22.930   7.377  47.841  1.00  0.00     0.069 C 
HETATM    3  C4  UNL     1      22.115   6.708  48.856  1.00  0.00     0.064 C 
HETATM    4  N1  UNL     1      20.864   6.816  49.046  1.00  0.00    -0.262 NA
HETATM    5  C5  UNL     1      20.187   6.083  50.051  1.00  0.00     0.134 C 
HETATM    6  C6  UNL     1      20.787   5.214  50.846  1.00  0.00     0.112 C 
HETATM    7  N2  UNL     1      22.179   5.004  50.659  1.00  0.00    -0.339 N 
HETATM    8  C20 UNL     1      22.853   5.976  49.898  1.00  0.00     0.167 C 
HETATM    9  C21 UNL     1      24.288   5.789  49.633  1.00  0.00     0.045 C 
HETATM   10  C22 UNL     1      24.975   6.335  48.655  1.00  0.00     0.108 C 
ENDROOT
BRANCH   7  11
HETATM   11  C7  UNL     1      22.829   3.872  51.215  1.00  0.00     0.068 A 
HETATM   12  C8  UNL     1      22.670   2.726  50.452  1.00  0.00     0.033 A 
HETATM   13  C9  UNL     1      23.247   1.538  50.865  1.00  0.00     0.011 A 
HETATM   14  C10 UNL     1      23.971   1.538  52.039  1.00  0.00    -0.037 A 
HETATM   15  C18 UNL     1      24.124   2.675  52.788  1.00  0.00     0.047 A 
HETATM   16  C19 UNL     1      23.555   3.871  52.390  1.00  0.00     0.093 A 
BRANCH  14  17
HETATM   17  C11 UNL     1      24.606   0.234  52.494  1.00  0.00     0.119 A 
HETATM   18  S1  UNL     1      24.182  -0.271  54.126  1.00  0.00    -0.115 SA
HETATM   19  C12 UNL     1      25.873   0.135  54.131  1.00  0.00     0.009 A 
HETATM   20  C13 UNL     1      26.945   0.176  55.005  1.00  0.00     0.019 A 
HETATM   21  C17 UNL     1      25.964   0.473  52.854  1.00  0.00    -0.023 A 
HETATM   22  C14 UNL     1      28.203   0.589  54.559  1.00  0.00     0.001 A 
HETATM   23  C15 UNL     1      28.352   0.956  53.223  1.00  0.00     0.001 A 
HETATM   24  C16 UNL     1      27.224   0.885  52.413  1.00  0.00     0.010 A 
ENDBRANCH  14  17
BRANCH  16  25
HETATM   25  O2  UNL     1      23.661   5.067  53.088  1.00  0.00    -0.358 OA
HETATM   26  H15 UNL     1      22.831   5.563  53.366  1.00  0.00     0.217 HD
ENDBRANCH  16  25
ENDBRANCH   7  11
BRANCH  10  27
HETATM   27  O3  UNL     1      26.340   6.102  48.521  1.00  0.00    -0.302 OA
BRANCH  27  28
HETATM   28  C23 UNL     1      26.799   4.853  48.965  1.00  0.00     0.250 C 
HETATM   29  N3  UNL     1      28.019   4.712  49.346  1.00  0.00    -0.289 NA
HETATM   30  H19 UNL     1      28.626   5.549  49.308  1.00  0.00     0.188 HD
ENDBRANCH  27  28
ENDBRANCH  10  27
BRANCH   1  31
HETATM   31  O1  UNL     1      24.977   7.815  46.741  1.00  0.00    -0.353 OA
HETATM   32  C1  UNL     1      25.594   9.092  46.959  1.00  0.00     0.210 C 
ENDBRANCH   1  31
TORSDOF 6
ENDMDL
MODEL 7
REMARK VINA RESULT:      -7.7      3.704      5.996
REMARK  6 active torsions:
REMARK  status: ('A' for Active; 'I' for Inactive)
REMARK    1  A    between atoms: O1_2  and  C2_3 
REMARK    2  A    between atoms: N2_9  and  C7_10 
REMARK    3  A    between atoms: C10_13  and  C11_14 
REMARK    4  A    between atoms: C19_23  and  O2_24 
REMARK    5  A    between atoms: C22_27  and  O3_28 
REMARK    6  A    between atoms: O3_28  and  C23_29 
ROOT
HETATM    1  C2  UNL     1      26.747   0.001  53.212  1.00  0.00     0.103 C 
HETATM    2  C3  UNL     1      27.213   0.762  52.237  1.00  0.00     0.069 C 
HETATM    3  C4  UNL     1      26.377   1.735  51.532  1.00  0.00     0.064 C 
HETATM    4  N1  UNL     1      26.715   2.512  50.587  1.00  0.00    -0.262 NA
HETATM    5  C5  UNL     1      25.794   3.389  49.964  1.00  0.00     0.134 C 
HETATM    6  C6  UNL     1      24.515   3.452  50.291  1.00  0.00     0.112 C 
HETATM    7  N2  UNL     1      24.054   2.577  51.309  1.00  0.00    -0.339 N 
HETATM    8  C20 UNL     1      25.045   1.982  52.108  1.00  0.00     0.167 C 
HETATM    9  C21 UNL     1      24.630   1.031  53.152  1.00  0.00     0.045 C 
HETATM   10  C22 UNL     1      25.382   0.106  53.704  1.00  0.00     0.108 C 
ENDROOT
BRANCH   7  11
HETATM   11  C7  UNL     1      22.667   2.331  51.488  1.00  0.00     0.068 A 
HETATM   12  C8  UNL     1      22.242   1.159  50.884  1.00  0.00     0.033 A 
HETATM   13  C9  UNL     1      20.913   0.782  50.971  1.00  0.00     0.011 A 
HETATM   14  C10 UNL     1      20.048   1.600  51.668  1.00  0.00    -0.037 A 
HETATM   15  C18 UNL     1      20.476   2.757  52.263  1.00  0.00     0.047 A 
HETATM   16  C19 UNL     1      21.800   3.148  52.186  1.00  0.00     0.093 A 
BRANCH  14  17
HETATM   17  C11 UNL     1      18.588   1.188  51.764  1.00  0.00     0.119 A 
HETATM   18  S1  UNL     1      18.032   0.110  50.489  1.00  0.00    -0.115 SA
HETATM   19  C12 UNL     1      17.215   1.629  50.277  1.00  0.00     0.009 A 
HETATM   20  C13 UNL     1      16.290   2.221  49.435  1.00  0.00     0.019 A 
HETATM   21  C17 UNL     1      17.766   2.258  51.304  1.00  0.00    -0.023 A 
HETATM   22  C14 UNL     1      15.891   3.544  49.642  1.00  0.00     0.001 A 
HETATM   23  C15 UNL     1      16.443   4.249  50.711  1.00  0.00     0.001 A 
HETATM   24  C16 UNL     1      17.364   3.579  51.508  1.00  0.00     0.010 A 
ENDBRANCH  14  17
BRANCH  16  25
HETATM   25  O2  UNL     1      22.316   4.303  52.759  1.00  0.00    -0.358 OA
HETATM   26  H15 UNL     1      21.911   4.671  53.604  1.00  0.00     0.217 HD
ENDBRANCH  16  25
ENDBRANCH   7  11
BRANCH  10  27
HETATM   27  O3  UNL     1      24.881  -0.722  54.703  1.00  0.00    -0.302 OA
BRANCH  27  28
HETATM   28  C23 UNL     1      23.493  -0.921  54.702  1.00  0.00     0.250 C 
HETATM   29  N3  UNL     1      22.942  -1.635  55.618  1.00  0.00    -0.289 NA
HETATM   30  H19 UNL     1      23.564  -2.043  56.337  1.00  0.00     0.188 HD
ENDBRANCH  27  28
ENDBRANCH  10  27
BRANCH   1  31
HETATM   31  O1  UNL     1      27.561  -0.935  53.847  1.00  0.00    -0.353 OA
HETATM   32  C1  UNL     1      28.992  -0.833  53.815  1.00  0.00     0.210 C 
ENDBRANCH   1  31
TORSDOF 6
ENDMDL
MODEL 8
REMARK VINA RESULT:      -7.4      2.815      4.723
REMARK  6 active torsions:
REMARK  status: ('A' for Active; 'I' for Inactive)
REMARK    1  A    between atoms: O1_2  and  C2_3 
REMARK    2  A    between atoms: N2_9  and  C7_10 
REMARK    3  A    between atoms: C10_13  and  C11_14 
REMARK    4  A    between atoms: C19_23  and  O2_24 
REMARK    5  A    between atoms: C22_27  and  O3_28 
REMARK    6  A    between atoms: O3_28  and  C23_29 
ROOT
HETATM    1  C2  UNL     1      22.169   0.246  53.125  1.00  0.00     0.103 C 
HETATM    2  C3  UNL     1      23.450  -0.054  52.998  1.00  0.00     0.069 C 
HETATM    3  C4  UNL     1      24.423   0.876  52.425  1.00  0.00     0.064 C 
HETATM    4  N1  UNL     1      25.668   0.694  52.255  1.00  0.00    -0.262 NA
HETATM    5  C5  UNL     1      26.499   1.670  51.654  1.00  0.00     0.134 C 
HETATM    6  C6  UNL     1      26.050   2.827  51.199  1.00  0.00     0.112 C 
HETATM    7  N2  UNL     1      24.657   3.081  51.311  1.00  0.00    -0.339 N 
HETATM    8  C20 UNL     1      23.948   2.250  52.196  1.00  0.00     0.167 C 
HETATM    9  C21 UNL     1      22.493   2.437  52.321  1.00  0.00     0.045 C 
HETATM   10  C22 UNL     1      21.630   1.547  52.757  1.00  0.00     0.108 C 
ENDROOT
BRANCH   7  11
HETATM   11  C7  UNL     1      24.040   4.117  50.563  1.00  0.00     0.068 A 
HETATM   12  C8  UNL     1      23.731   3.739  49.266  1.00  0.00     0.033 A 
HETATM   13  C9  UNL     1      23.124   4.643  48.411  1.00  0.00     0.011 A 
HETATM   14  C10 UNL     1      22.845   5.906  48.890  1.00  0.00    -0.037 A 
HETATM   15  C18 UNL     1      23.153   6.272  50.174  1.00  0.00     0.047 A 
HETATM   16  C19 UNL     1      23.759   5.382  51.041  1.00  0.00     0.093 A 
BRANCH  14  17
HETATM   17  C11 UNL     1      22.178   6.900  47.953  1.00  0.00     0.119 A 
HETATM   18  S1  UNL     1      21.150   6.184  46.716  1.00  0.00    -0.115 SA
HETATM   19  C12 UNL     1      22.519   6.891  45.909  1.00  0.00     0.009 A 
HETATM   20  C13 UNL     1      23.021   7.052  44.630  1.00  0.00     0.019 A 
HETATM   21  C17 UNL     1      23.129   7.350  46.991  1.00  0.00    -0.023 A 
HETATM   22  C14 UNL     1      24.228   7.726  44.425  1.00  0.00     0.001 A 
HETATM   23  C15 UNL     1      24.910   8.228  45.532  1.00  0.00     0.001 A 
HETATM   24  C16 UNL     1      24.334   8.022  46.781  1.00  0.00     0.010 A 
ENDBRANCH  14  17
BRANCH  16  25
HETATM   25  O2  UNL     1      24.104   5.671  52.355  1.00  0.00    -0.358 OA
HETATM   26  H15 UNL     1      25.073   5.749  52.616  1.00  0.00     0.217 HD
ENDBRANCH  16  25
ENDBRANCH   7  11
BRANCH  10  27
HETATM   27  O3  UNL     1      20.276   1.849  52.854  1.00  0.00    -0.302 OA
BRANCH  27  28
HETATM   28  C23 UNL     1      19.718   2.538  51.766  1.00  0.00     0.250 C 
HETATM   29  N3  UNL     1      18.994   3.581  51.966  1.00  0.00    -0.289 NA
HETATM   30  H19 UNL     1      18.850   3.876  52.946  1.00  0.00     0.188 HD
ENDBRANCH  27  28
ENDBRANCH  10  27
BRANCH   1  31
HETATM   31  O1  UNL     1      21.262  -0.671  53.650  1.00  0.00    -0.353 OA
HETATM   32  C1  UNL     1      21.667  -1.677  54.590  1.00  0.00     0.210 C 
ENDBRANCH   1  31
TORSDOF 6
ENDMDL
MODEL 9
REMARK VINA RESULT:      -7.3      2.067      2.688
REMARK  6 active torsions:
REMARK  status: ('A' for Active; 'I' for Inactive)
REMARK    1  A    between atoms: O1_2  and  C2_3 
REMARK    2  A    between atoms: N2_9  and  C7_10 
REMARK    3  A    between atoms: C10_13  and  C11_14 
REMARK    4  A    between atoms: C19_23  and  O2_24 
REMARK    5  A    between atoms: C22_27  and  O3_28 
REMARK    6  A    between atoms: O3_28  and  C23_29 
ROOT
HETATM    1  C2  UNL     1      25.357   0.784  52.689  1.00  0.00     0.103 C 
HETATM    2  C3  UNL     1      24.240   0.397  53.280  1.00  0.00     0.069 C 
HETATM    3  C4  UNL     1      22.942   1.006  52.985  1.00  0.00     0.064 C 
HETATM    4  N1  UNL     1      21.814   0.717  53.490  1.00  0.00    -0.262 NA
HETATM    5  C5  UNL     1      20.630   1.411  53.139  1.00  0.00     0.134 C 
HETATM    6  C6  UNL     1      20.605   2.423  52.289  1.00  0.00     0.112 C 
HETATM    7  N2  UNL     1      21.839   2.834  51.721  1.00  0.00    -0.339 N 
HETATM    8  C20 UNL     1      22.905   1.925  51.836  1.00  0.00     0.167 C 
HETATM    9  C21 UNL     1      24.221   2.314  51.305  1.00  0.00     0.045 C 
HETATM   10  C22 UNL     1      25.382   1.808  51.656  1.00  0.00     0.108 C 
ENDROOT
BRANCH   7  11
HETATM   11  C7  UNL     1      21.966   4.095  51.082  1.00  0.00     0.068 A 
HETATM   12  C8  UNL     1      21.607   4.063  49.744  1.00  0.00     0.033 A 
HETATM   13  C9  UNL     1      21.678   5.218  48.984  1.00  0.00     0.011 A 
HETATM   14  C10 UNL     1      22.110   6.376  49.597  1.00  0.00    -0.037 A 
HETATM   15  C18 UNL     1      22.464   6.399  50.921  1.00  0.00     0.047 A 
HETATM   16  C19 UNL     1      22.398   5.255  51.694  1.00  0.00     0.093 A 
BRANCH  14  17
HETATM   17  C11 UNL     1      22.189   7.645  48.765  1.00  0.00     0.119 A 
HETATM   18  S1  UNL     1      21.627   7.483  47.105  1.00  0.00    -0.115 SA
HETATM   19  C12 UNL     1      23.341   7.771  47.048  1.00  0.00     0.009 A 
HETATM   20  C13 UNL     1      24.358   7.905  46.118  1.00  0.00     0.019 A 
HETATM   21  C17 UNL     1      23.538   7.855  48.354  1.00  0.00    -0.023 A 
HETATM   22  C14 UNL     1      25.670   8.143  46.537  1.00  0.00     0.001 A 
HETATM   23  C15 UNL     1      25.929   8.241  47.903  1.00  0.00     0.001 A 
HETATM   24  C16 UNL     1      24.850   8.094  48.767  1.00  0.00     0.010 A 
ENDBRANCH  14  17
BRANCH  16  25
HETATM   25  O2  UNL     1      22.737   5.192  53.040  1.00  0.00    -0.358 OA
HETATM   26  H15 UNL     1      22.704   4.312  53.527  1.00  0.00     0.217 HD
ENDBRANCH  16  25
ENDBRANCH   7  11
BRANCH  10  27
HETATM   27  O3  UNL     1      26.562   2.243  51.063  1.00  0.00    -0.302 OA
BRANCH  27  28
HETATM   28  C23 UNL     1      26.422   3.141  49.994  1.00  0.00     0.250 C 
HETATM   29  N3  UNL     1      27.198   4.162  49.903  1.00  0.00    -0.289 NA
HETATM   30  H19 UNL     1      27.912   4.280  50.641  1.00  0.00     0.188 HD
ENDBRANCH  27  28
ENDBRANCH  10  27
BRANCH   1  31
HETATM   31  O1  UNL     1      26.581   0.202  53.011  1.00  0.00    -0.353 OA
HETATM   32  C1  UNL     1      27.068   0.169  54.360  1.00  0.00     0.210 C 
ENDBRANCH   1  31
TORSDOF 6
ENDMDL
