MODEL 1
REMARK VINA RESULT:      -9.8      0.000      0.000
REMARK  9 active torsions:
REMARK  status: ('A' for Active; 'I' for Inactive)
REMARK    1  A    between atoms: C2_2  and  O1_3 
REMARK    2  A    between atoms: C2_2  and  C3_4 
REMARK    3  A    between atoms: C3_4  and  C4_5 
REMARK    4  A    between atoms: C4_5  and  C5_6 
REMARK    5  A    between atoms: C8_10  and  S1_13 
REMARK    6  A    between atoms: C17_20  and  C18_21 
REMARK    7  A    between atoms: C18_21  and  C19_22 
REMARK    8  A    between atoms: C19_22  and  C20_23 
REMARK    9  A    between atoms: C20_23  and  O3_25 
ROOT
HETATM    1  C5  UNL     1      25.189   4.707  50.548  1.00  0.00     0.036 C 
HETATM    2  C6  UNL     1      24.674   3.483  50.871  1.00  0.00    -0.019 A 
HETATM    3  C7  UNL     1      24.345   2.412  51.274  1.00  0.00     0.243 A 
HETATM    4  N1  UNL     1      23.831   1.257  51.580  1.00  0.00     0.019 N 
HETATM    5  C8  UNL     1      22.953   1.729  50.568  1.00  0.00     0.241 A 
HETATM    6  C9  UNL     1      21.901   1.769  49.695  1.00  0.00     0.137 A 
HETATM    7  C10 UNL     1      21.329   1.948  51.107  1.00  0.00    -0.023 A 
HETATM    8  S1  UNL     1      22.866   1.608  51.381  1.00  0.00    -0.028 SA
HETATM    9  C11 UNL     1      22.811   0.313  52.727  1.00  0.00     0.009 A 
HETATM   10  C12 UNL     1      21.583  -0.288  53.040  1.00  0.00     0.018 A 
HETATM   11  C13 UNL     1      21.609  -1.085  54.121  1.00  0.00     0.001 A 
HETATM   12  C14 UNL     1      22.640  -1.398  54.948  1.00  0.00     0.001 A 
HETATM   13  C15 UNL     1      23.865  -0.848  54.690  1.00  0.00     0.011 A 
HETATM   14  C16 UNL     1      23.851  -0.050  53.613  1.00  0.00    -0.010 A 
HETATM   15  C17 UNL     1      24.686   0.746  52.596  1.00  0.00     0.240 C 
HETATM   16  C21 UNL     1      20.397   2.294  52.138  1.00  0.00     0.070 C 
HETATM   17  C22 UNL     1      20.757   3.845  52.062  1.00  0.00     0.002 C 
HETATM   18  C23 UNL     1      21.646   4.551  51.338  1.00  0.00     0.132 C 
HETATM   19  O4  UNL     1      22.531   4.144  50.378  1.00  0.00    -0.350 OA
HETATM   20  C24 UNL     1      23.533   3.233  49.987  1.00  0.00     0.222 A 
ENDROOT
BRANCH   1  21
HETATM   21  C4  UNL     1      25.695   4.842  49.095  1.00  0.00     0.007 C 
BRANCH  21  22
HETATM   22  C3  UNL     1      27.129   4.494  48.936  1.00  0.00     0.032 C 
BRANCH  22  23
HETATM   23  C2  UNL     1      27.808   5.764  48.402  1.00  0.00     0.114 C 
HETATM   24  C1  UNL     1      29.275   5.568  48.184  1.00  0.00     0.039 C 
BRANCH  23  25
HETATM   25  O1  UNL     1      27.630   6.816  49.299  1.00  0.00    -0.396 OA
HETATM   26  H5  UNL     1      26.715   7.190  49.251  1.00  0.00     0.210 HD
ENDBRANCH  23  25
ENDBRANCH  22  23
ENDBRANCH  21  22
ENDBRANCH   1  21
BRANCH  15  27
HETATM   27  C18 UNL     1      25.375   1.793  53.386  1.00  0.00     0.050 C 
BRANCH  27  28
HETATM   28  C19 UNL     1      26.662   1.439  54.029  1.00  0.00     0.112 C 
BRANCH  28  29
HETATM   29  C20 UNL     1      27.801   2.275  53.546  1.00  0.00     0.139 C 
HETATM   30  O2  UNL     1      28.810   2.577  54.227  1.00  0.00    -0.650 OA
BRANCH  29  31
HETATM   31  O3  UNL     1      27.726   2.744  52.235  1.00  0.00    -0.776 OA
HETATM   32  H22 UNL     1      28.631   2.933  51.776  1.00  0.00     0.167 HD
ENDBRANCH  29  31
ENDBRANCH  28  29
ENDBRANCH  27  28
ENDBRANCH  15  27
TORSDOF 9
ENDMDL
MODEL 2
REMARK VINA RESULT:      -9.5      2.574      4.214
REMARK  9 active torsions:
REMARK  status: ('A' for Active; 'I' for Inactive)
REMARK    1  A    between atoms: C2_2  and  O1_3 
REMARK    2  A    between atoms: C2_2  and  C3_4 
REMARK    3  A    between atoms: C3_4  and  C4_5 
REMARK    4  A    between atoms: C4_5  and  C5_6 
REMARK    5  A    between atoms: C8_10  and  S1_13 
REMARK    6  A    between atoms: C17_20  and  C18_21 
REMARK    7  A    between atoms: C18_21  and  C19_22 
REMARK    8  A    between atoms: C19_22  and  C20_23 
REMARK    9  A    between atoms: C20_23  and  O3_25 
ROOT
HETATM    1  C5  UNL     1      25.773   2.188  53.595  1.00  0.00     0.036 C 
HETATM    2  C6  UNL     1      24.668   1.608  53.038  1.00  0.00    -0.019 A 
HETATM    3  C7  UNL     1      23.693   1.015  52.697  1.00  0.00     0.243 A 
HETATM    4  N1  UNL     1      22.634   0.487  52.158  1.00  0.00     0.019 N 
HETATM    5  C8  UNL     1      23.022   1.456  51.195  1.00  0.00     0.241 A 
HETATM    6  C9  UNL     1      23.007   2.213  50.056  1.00  0.00     0.137 A 
HETATM    7  C10 UNL     1      21.838   2.683  50.931  1.00  0.00    -0.023 A 
HETATM    8  S1  UNL     1      22.379   1.397  51.711  1.00  0.00    -0.028 SA
HETATM    9  C11 UNL     1      20.834   0.425  52.109  1.00  0.00     0.009 A 
HETATM   10  C12 UNL     1      19.628   0.785  51.490  1.00  0.00     0.018 A 
HETATM   11  C13 UNL     1      18.545   0.139  51.954  1.00  0.00     0.001 A 
HETATM   12  C14 UNL     1      18.444  -0.807  52.924  1.00  0.00     0.001 A 
HETATM   13  C15 UNL     1      19.588  -1.205  53.560  1.00  0.00     0.011 A 
HETATM   14  C16 UNL     1      20.675  -0.566  53.105  1.00  0.00    -0.010 A 
HETATM   15  C17 UNL     1      22.211  -0.495  53.097  1.00  0.00     0.240 C 
HETATM   16  C21 UNL     1      20.793   3.528  51.423  1.00  0.00     0.070 C 
HETATM   17  C22 UNL     1      21.804   4.447  52.243  1.00  0.00     0.002 C 
HETATM   18  C23 UNL     1      23.136   4.405  52.440  1.00  0.00     0.132 C 
HETATM   19  O4  UNL     1      24.078   3.544  51.951  1.00  0.00    -0.350 OA
HETATM   20  C24 UNL     1      24.469   2.209  51.716  1.00  0.00     0.222 A 
ENDROOT
BRANCH   1  21
HETATM   21  C4  UNL     1      27.084   1.998  52.802  1.00  0.00     0.007 C 
BRANCH  21  22
HETATM   22  C3  UNL     1      27.568   0.595  52.791  1.00  0.00     0.032 C 
BRANCH  22  23
HETATM   23  C2  UNL     1      28.547   0.485  53.969  1.00  0.00     0.114 C 
HETATM   24  C1  UNL     1      29.817  -0.205  53.583  1.00  0.00     0.039 C 
BRANCH  23  25
HETATM   25  O1  UNL     1      27.960  -0.222  55.017  1.00  0.00    -0.396 OA
HETATM   26  H5  UNL     1      28.482  -0.141  55.854  1.00  0.00     0.210 HD
ENDBRANCH  23  25
ENDBRANCH  22  23
ENDBRANCH  21  22
ENDBRANCH   1  21
BRANCH  15  27
HETATM   27  C18 UNL     1      22.599  -0.199  54.495  1.00  0.00     0.050 C 
BRANCH  27  28
HETATM   28  C19 UNL     1      23.065  -1.325  55.337  1.00  0.00     0.112 C 
BRANCH  28  29
HETATM   29  C20 UNL     1      24.541  -1.307  55.567  1.00  0.00     0.139 C 
HETATM   30  O2  UNL     1      25.408  -1.297  54.661  1.00  0.00    -0.650 OA
BRANCH  29  31
HETATM   31  O3  UNL     1      24.971  -1.297  56.893  1.00  0.00    -0.776 OA
HETATM   32  H22 UNL     1      25.915  -1.680  57.058  1.00  0.00     0.167 HD
ENDBRANCH  29  31
ENDBRANCH  28  29
ENDBRANCH  27  28
ENDBRANCH  15  27
TORSDOF 9
ENDMDL
MODEL 3
REMARK VINA RESULT:      -8.3      2.862      6.181
REMARK  9 active torsions:
REMARK  status: ('A' for Active; 'I' for Inactive)
REMARK    1  A    between atoms: C2_2  and  O1_3 
REMARK    2  A    between atoms: C2_2  and  C3_4 
REMARK    3  A    between atoms: C3_4  and  C4_5 
REMARK    4  A    between atoms: C4_5  and  C5_6 
REMARK    5  A    between atoms: C8_10  and  S1_13 
REMARK    6  A    between atoms: C17_20  and  C18_21 
REMARK    7  A    between atoms: C18_21  and  C19_22 
REMARK    8  A    between atoms: C19_22  and  C20_23 
REMARK    9  A    between atoms: C20_23  and  O3_25 
ROOT
HETATM    1  C5  UNL     1      19.693   2.381  51.085  1.00  0.00     0.036 C 
HETATM    2  C6  UNL     1      20.933   2.348  51.659  1.00  0.00    -0.019 A 
HETATM    3  C7  UNL     1      21.985   2.155  52.184  1.00  0.00     0.243 A 
HETATM    4  N1  UNL     1      23.174   2.139  52.711  1.00  0.00     0.019 N 
HETATM    5  C8  UNL     1      23.068   3.469  52.223  1.00  0.00     0.241 A 
HETATM    6  C9  UNL     1      23.405   4.763  51.934  1.00  0.00     0.137 A 
HETATM    7  C10 UNL     1      24.236   3.859  51.015  1.00  0.00    -0.023 A 
HETATM    8  S1  UNL     1      23.524   2.818  51.997  1.00  0.00    -0.028 SA
HETATM    9  C11 UNL     1      24.904   1.673  52.522  1.00  0.00     0.009 A 
HETATM   10  C12 UNL     1      26.229   2.033  52.237  1.00  0.00     0.018 A 
HETATM   11  C13 UNL     1      27.138   1.081  52.506  1.00  0.00     0.001 A 
HETATM   12  C14 UNL     1      26.968  -0.168  53.012  1.00  0.00     0.001 A 
HETATM   13  C15 UNL     1      25.698  -0.575  53.316  1.00  0.00     0.011 A 
HETATM   14  C16 UNL     1      24.782   0.367  53.052  1.00  0.00    -0.010 A 
HETATM   15  C17 UNL     1      23.321   0.817  53.214  1.00  0.00     0.240 C 
HETATM   16  C21 UNL     1      25.054   3.472  49.905  1.00  0.00     0.070 C 
HETATM   17  C22 UNL     1      23.812   3.379  48.911  1.00  0.00     0.002 C 
HETATM   18  C23 UNL     1      22.485   3.548  49.074  1.00  0.00     0.132 C 
HETATM   19  O4  UNL     1      21.765   3.899  50.182  1.00  0.00    -0.350 OA
HETATM   20  C24 UNL     1      21.508   3.693  51.553  1.00  0.00     0.222 A 
ENDROOT
BRANCH   1  21
HETATM   21  C4  UNL     1      18.694   3.359  51.739  1.00  0.00     0.007 C 
BRANCH  21  22
HETATM   22  C3  UNL     1      17.275   2.984  51.523  1.00  0.00     0.032 C 
BRANCH  22  23
HETATM   23  C2  UNL     1      16.466   4.269  51.752  1.00  0.00     0.114 C 
HETATM   24  C1  UNL     1      15.409   4.089  52.795  1.00  0.00     0.039 C 
BRANCH  23  25
HETATM   25  O1  UNL     1      15.854   4.669  50.565  1.00  0.00    -0.396 OA
HETATM   26  H5  UNL     1      15.083   5.266  50.732  1.00  0.00     0.210 HD
ENDBRANCH  23  25
ENDBRANCH  22  23
ENDBRANCH  21  22
ENDBRANCH   1  21
BRANCH  15  27
HETATM   27  C18 UNL     1      22.515  -0.196  52.494  1.00  0.00     0.050 C 
BRANCH  27  28
HETATM   28  C19 UNL     1      22.069  -1.390  53.247  1.00  0.00     0.112 C 
BRANCH  28  29
HETATM   29  C20 UNL     1      21.818  -1.105  54.691  1.00  0.00     0.139 C 
HETATM   30  O2  UNL     1      22.515  -1.538  55.640  1.00  0.00    -0.650 OA
BRANCH  29  31
HETATM   31  O3  UNL     1      20.724  -0.294  54.992  1.00  0.00    -0.776 OA
HETATM   32  H22 UNL     1      19.801  -0.683  54.746  1.00  0.00     0.167 HD
ENDBRANCH  29  31
ENDBRANCH  28  29
ENDBRANCH  27  28
ENDBRANCH  15  27
TORSDOF 9
ENDMDL
MODEL 4
REMARK VINA RESULT:      -8.2      1.775      2.414
REMARK  9 active torsions:
REMARK  status: ('A' for Active; 'I' for Inactive)
REMARK    1  A    between atoms: C2_2  and  O1_3 
REMARK    2  A    between atoms: C2_2  and  C3_4 
REMARK    3  A    between atoms: C3_4  and  C4_5 
REMARK    4  A    between atoms: C4_5  and  C5_6 
REMARK    5  A    between atoms: C8_10  and  S1_13 
REMARK    6  A    between atoms: C17_20  and  C18_21 
REMARK    7  A    between atoms: C18_21  and  C19_22 
REMARK    8  A    between atoms: C19_22  and  C20_23 
REMARK    9  A    between atoms: C20_23  and  O3_25 
ROOT
HETATM    1  C5  UNL     1      23.867   4.685  50.190  1.00  0.00     0.036 C 
HETATM    2  C6  UNL     1      23.634   3.411  50.624  1.00  0.00    -0.019 A 
HETATM    3  C7  UNL     1      23.560   2.326  51.109  1.00  0.00     0.243 A 
HETATM    4  N1  UNL     1      23.312   1.118  51.522  1.00  0.00     0.019 N 
HETATM    5  C8  UNL     1      22.262   1.350  50.594  1.00  0.00     0.241 A 
HETATM    6  C9  UNL     1      21.140   1.134  49.842  1.00  0.00     0.137 A 
HETATM    7  C10 UNL     1      20.689   1.296  51.299  1.00  0.00    -0.023 A 
HETATM    8  S1  UNL     1      22.282   1.268  51.415  1.00  0.00    -0.028 SA
HETATM    9  C11 UNL     1      22.614   0.077  52.817  1.00  0.00     0.009 A 
HETATM   10  C12 UNL     1      21.562  -0.721  53.292  1.00  0.00     0.018 A 
HETATM   11  C13 UNL     1      21.850  -1.426  54.398  1.00  0.00     0.001 A 
HETATM   12  C14 UNL     1      23.000  -1.485  55.119  1.00  0.00     0.001 A 
HETATM   13  C15 UNL     1      24.063  -0.734  54.702  1.00  0.00     0.011 A 
HETATM   14  C16 UNL     1      23.788  -0.026  53.598  1.00  0.00    -0.010 A 
HETATM   15  C17 UNL     1      24.347   0.845  52.460  1.00  0.00     0.240 C 
HETATM   16  C21 UNL     1      19.815   1.528  52.409  1.00  0.00     0.070 C 
HETATM   17  C22 UNL     1      19.859   3.110  52.224  1.00  0.00     0.002 C 
HETATM   18  C23 UNL     1      20.518   3.921  51.374  1.00  0.00     0.132 C 
HETATM   19  O4  UNL     1      21.364   3.625  50.341  1.00  0.00    -0.350 OA
HETATM   20  C24 UNL     1      22.479   2.894  49.884  1.00  0.00     0.222 A 
ENDROOT
BRANCH   1  21
HETATM   21  C4  UNL     1      24.190   4.817  48.686  1.00  0.00     0.007 C 
BRANCH  21  22
HETATM   22  C3  UNL     1      23.886   6.160  48.133  1.00  0.00     0.032 C 
BRANCH  22  23
HETATM   23  C2  UNL     1      22.587   5.995  47.331  1.00  0.00     0.114 C 
HETATM   24  C1  UNL     1      21.383   6.401  48.122  1.00  0.00     0.039 C 
BRANCH  23  25
HETATM   25  O1  UNL     1      22.431   4.667  46.937  1.00  0.00    -0.396 OA
HETATM   26  H5  UNL     1      21.477   4.415  46.866  1.00  0.00     0.210 HD
ENDBRANCH  23  25
ENDBRANCH  22  23
ENDBRANCH  21  22
ENDBRANCH   1  21
BRANCH  15  27
HETATM   27  C18 UNL     1      24.896   2.051  53.119  1.00  0.00     0.050 C 
BRANCH  27  28
HETATM   28  C19 UNL     1      26.296   2.000  53.600  1.00  0.00     0.112 C 
BRANCH  28  29
HETATM   29  C20 UNL     1      27.284   2.410  52.557  1.00  0.00     0.139 C 
HETATM   30  O2  UNL     1      27.086   2.356  51.320  1.00  0.00    -0.650 OA
BRANCH  29  31
HETATM   31  O3  UNL     1      28.513   2.888  53.009  1.00  0.00    -0.776 OA
HETATM   32  H22 UNL     1      28.901   3.686  52.482  1.00  0.00     0.167 HD
ENDBRANCH  29  31
ENDBRANCH  28  29
ENDBRANCH  27  28
ENDBRANCH  15  27
TORSDOF 9
ENDMDL
MODEL 5
REMARK VINA RESULT:      -8.1      2.329      3.141
REMARK  9 active torsions:
REMARK  status: ('A' for Active; 'I' for Inactive)
REMARK    1  A    between atoms: C2_2  and  O1_3 
REMARK    2  A    between atoms: C2_2  and  C3_4 
REMARK    3  A    between atoms: C3_4  and  C4_5 
REMARK    4  A    between atoms: C4_5  and  C5_6 
REMARK    5  A    between atoms: C8_10  and  S1_13 
REMARK    6  A    between atoms: C17_20  and  C18_21 
REMARK    7  A    between atoms: C18_21  and  C19_22 
REMARK    8  A    between atoms: C19_22  and  C20_23 
REMARK    9  A    between atoms: C20_23  and  O3_25 
ROOT
HETATM    1  C5  UNL     1      24.911   2.939  51.257  1.00  0.00     0.036 C 
HETATM    2  C6  UNL     1      23.821   2.119  51.172  1.00  0.00    -0.019 A 
HETATM    3  C7  UNL     1      22.923   1.339  51.246  1.00  0.00     0.243 A 
HETATM    4  N1  UNL     1      21.872   0.580  51.158  1.00  0.00     0.019 N 
HETATM    5  C8  UNL     1      21.728   1.440  50.037  1.00  0.00     0.241 A 
HETATM    6  C9  UNL     1      21.197   2.006  48.911  1.00  0.00     0.137 A 
HETATM    7  C10 UNL     1      20.308   2.417  50.091  1.00  0.00    -0.023 A 
HETATM    8  S1  UNL     1      21.313   1.362  50.747  1.00  0.00    -0.028 SA
HETATM    9  C11 UNL     1      20.202   0.236  51.742  1.00  0.00     0.009 A 
HETATM   10  C12 UNL     1      18.815   0.309  51.550  1.00  0.00     0.018 A 
HETATM   11  C13 UNL     1      18.091  -0.418  52.417  1.00  0.00     0.001 A 
HETATM   12  C14 UNL     1      18.498  -1.211  53.442  1.00  0.00     0.001 A 
HETATM   13  C15 UNL     1      19.840  -1.328  53.675  1.00  0.00     0.011 A 
HETATM   14  C16 UNL     1      20.573  -0.607  52.816  1.00  0.00    -0.010 A 
HETATM   15  C17 UNL     1      21.978  -0.303  52.269  1.00  0.00     0.240 C 
HETATM   16  C21 UNL     1      19.335   3.156  50.838  1.00  0.00     0.070 C 
HETATM   17  C22 UNL     1      20.357   4.333  51.170  1.00  0.00     0.002 C 
HETATM   18  C23 UNL     1      21.663   4.526  50.895  1.00  0.00     0.132 C 
HETATM   19  O4  UNL     1      22.543   3.755  50.189  1.00  0.00    -0.350 OA
HETATM   20  C24 UNL     1      23.089   2.476  49.954  1.00  0.00     0.222 A 
ENDROOT
BRANCH   1  21
HETATM   21  C4  UNL     1      25.903   2.835  50.079  1.00  0.00     0.007 C 
BRANCH  21  22
HETATM   22  C3  UNL     1      26.781   4.023  49.942  1.00  0.00     0.032 C 
BRANCH  22  23
HETATM   23  C2  UNL     1      25.854   5.182  49.548  1.00  0.00     0.114 C 
HETATM   24  C1  UNL     1      26.447   6.037  48.473  1.00  0.00     0.039 C 
BRANCH  23  25
HETATM   25  O1  UNL     1      25.591   5.984  50.658  1.00  0.00    -0.396 OA
HETATM   26  H5  UNL     1      24.633   5.966  50.905  1.00  0.00     0.210 HD
ENDBRANCH  23  25
ENDBRANCH  22  23
ENDBRANCH  21  22
ENDBRANCH   1  21
BRANCH  15  27
HETATM   27  C18 UNL     1      22.734   0.257  53.413  1.00  0.00     0.050 C 
BRANCH  27  28
HETATM   28  C19 UNL     1      23.924  -0.487  53.886  1.00  0.00     0.112 C 
BRANCH  28  29
HETATM   29  C20 UNL     1      23.692  -1.189  55.183  1.00  0.00     0.139 C 
HETATM   30  O2  UNL     1      22.577  -1.589  55.594  1.00  0.00    -0.650 OA
BRANCH  29  31
HETATM   31  O3  UNL     1      24.810  -1.413  55.986  1.00  0.00    -0.776 OA
HETATM   32  H22 UNL     1      25.012  -0.679  56.682  1.00  0.00     0.167 HD
ENDBRANCH  29  31
ENDBRANCH  28  29
ENDBRANCH  27  28
ENDBRANCH  15  27
TORSDOF 9
ENDMDL
MODEL 6
REMARK VINA RESULT:      -7.8      2.108      5.537
REMARK  9 active torsions:
REMARK  status: ('A' for Active; 'I' for Inactive)
REMARK    1  A    between atoms: C2_2  and  O1_3 
REMARK    2  A    between atoms: C2_2  and  C3_4 
REMARK    3  A    between atoms: C3_4  and  C4_5 
REMARK    4  A    between atoms: C4_5  and  C5_6 
REMARK    5  A    between atoms: C8_10  and  S1_13 
REMARK    6  A    between atoms: C17_20  and  C18_21 
REMARK    7  A    between atoms: C18_21  and  C19_22 
REMARK    8  A    between atoms: C19_22  and  C20_23 
REMARK    9  A    between atoms: C20_23  and  O3_25 
ROOT
HETATM    1  C5  UNL     1      24.944   1.353  51.816  1.00  0.00     0.036 C 
HETATM    2  C6  UNL     1      24.151   2.423  51.512  1.00  0.00    -0.019 A 
HETATM    3  C7  UNL     1      23.588   3.409  51.150  1.00  0.00     0.243 A 
HETATM    4  N1  UNL     1      22.813   4.411  50.859  1.00  0.00     0.019 N 
HETATM    5  C8  UNL     1      21.973   3.593  51.661  1.00  0.00     0.241 A 
HETATM    6  C9  UNL     1      20.865   3.159  52.333  1.00  0.00     0.137 A 
HETATM    7  C10 UNL     1      20.574   3.016  50.833  1.00  0.00    -0.023 A 
HETATM    8  S1  UNL     1      21.972   3.791  50.858  1.00  0.00    -0.028 SA
HETATM    9  C11 UNL     1      21.739   5.186  49.637  1.00  0.00     0.009 A 
HETATM   10  C12 UNL     1      20.447   5.468  49.168  1.00  0.00     0.018 A 
HETATM   11  C13 UNL     1      20.396   6.375  48.179  1.00  0.00     0.001 A 
HETATM   12  C14 UNL     1      21.401   7.058  47.571  1.00  0.00     0.001 A 
HETATM   13  C15 UNL     1      22.683   6.831  47.989  1.00  0.00     0.011 A 
HETATM   14  C16 UNL     1      22.746   5.927  48.977  1.00  0.00    -0.010 A 
HETATM   15  C17 UNL     1      23.621   5.261  50.052  1.00  0.00     0.240 C 
HETATM   16  C21 UNL     1      19.936   2.568  49.632  1.00  0.00     0.070 C 
HETATM   17  C22 UNL     1      20.712   1.175  49.638  1.00  0.00     0.002 C 
HETATM   18  C23 UNL     1      21.655   0.647  50.443  1.00  0.00     0.132 C 
HETATM   19  O4  UNL     1      22.240   1.150  51.572  1.00  0.00    -0.350 OA
HETATM   20  C24 UNL     1      22.872   2.240  52.204  1.00  0.00     0.222 A 
ENDROOT
BRANCH   1  21
HETATM   21  C4  UNL     1      25.256   1.173  53.317  1.00  0.00     0.007 C 
BRANCH  21  22
HETATM   22  C3  UNL     1      26.283   2.117  53.822  1.00  0.00     0.032 C 
BRANCH  22  23
HETATM   23  C2  UNL     1      27.601   1.693  53.157  1.00  0.00     0.114 C 
HETATM   24  C1  UNL     1      28.471   0.905  54.085  1.00  0.00     0.039 C 
BRANCH  23  25
HETATM   25  O1  UNL     1      28.308   2.817  52.734  1.00  0.00    -0.396 OA
HETATM   26  H5  UNL     1      29.285   2.658  52.732  1.00  0.00     0.210 HD
ENDBRANCH  23  25
ENDBRANCH  22  23
ENDBRANCH  21  22
ENDBRANCH   1  21
BRANCH  15  27
HETATM   27  C18 UNL     1      24.686   4.550  49.308  1.00  0.00     0.050 C 
BRANCH  27  28
HETATM   28  C19 UNL     1      25.887   5.321  48.913  1.00  0.00     0.112 C 
BRANCH  28  29
HETATM   29  C20 UNL     1      27.161   4.587  49.175  1.00  0.00     0.139 C 
HETATM   30  O2  UNL     1      28.206   4.697  48.491  1.00  0.00    -0.650 OA
BRANCH  29  31
HETATM   31  O3  UNL     1      27.175   3.721  50.267  1.00  0.00    -0.776 OA
HETATM   32  H22 UNL     1      28.098   3.334  50.516  1.00  0.00     0.167 HD
ENDBRANCH  29  31
ENDBRANCH  28  29
ENDBRANCH  27  28
ENDBRANCH  15  27
TORSDOF 9
ENDMDL
MODEL 7
REMARK VINA RESULT:      -7.7      2.688      6.324
REMARK  9 active torsions:
REMARK  status: ('A' for Active; 'I' for Inactive)
REMARK    1  A    between atoms: C2_2  and  O1_3 
REMARK    2  A    between atoms: C2_2  and  C3_4 
REMARK    3  A    between atoms: C3_4  and  C4_5 
REMARK    4  A    between atoms: C4_5  and  C5_6 
REMARK    5  A    between atoms: C8_10  and  S1_13 
REMARK    6  A    between atoms: C17_20  and  C18_21 
REMARK    7  A    between atoms: C18_21  and  C19_22 
REMARK    8  A    between atoms: C19_22  and  C20_23 
REMARK    9  A    between atoms: C20_23  and  O3_25 
ROOT
HETATM    1  C5  UNL     1      25.916   2.364  50.641  1.00  0.00     0.036 C 
HETATM    2  C6  UNL     1      25.316   3.583  50.779  1.00  0.00    -0.019 A 
HETATM    3  C7  UNL     1      24.892   4.697  50.772  1.00  0.00     0.243 A 
HETATM    4  N1  UNL     1      24.298   5.845  50.906  1.00  0.00     0.019 N 
HETATM    5  C8  UNL     1      23.591   5.021  51.822  1.00  0.00     0.241 A 
HETATM    6  C9  UNL     1      22.676   4.637  52.763  1.00  0.00     0.137 A 
HETATM    7  C10 UNL     1      21.916   4.848  51.447  1.00  0.00    -0.023 A 
HETATM    8  S1  UNL     1      23.385   5.376  51.105  1.00  0.00    -0.028 SA
HETATM    9  C11 UNL     1      23.091   7.008  50.244  1.00  0.00     0.009 A 
HETATM   10  C12 UNL     1      21.809   7.576  50.287  1.00  0.00     0.018 A 
HETATM   11  C13 UNL     1      21.652   8.662  49.512  1.00  0.00     0.001 A 
HETATM   12  C14 UNL     1      22.542   9.290  48.701  1.00  0.00     0.001 A 
HETATM   13  C15 UNL     1      23.811   8.787  48.622  1.00  0.00     0.011 A 
HETATM   14  C16 UNL     1      23.980   7.703  49.392  1.00  0.00    -0.010 A 
HETATM   15  C17 UNL     1      24.980   6.705  50.000  1.00  0.00     0.240 C 
HETATM   16  C21 UNL     1      20.860   4.757  50.485  1.00  0.00     0.070 C 
HETATM   17  C22 UNL     1      21.284   3.289  50.030  1.00  0.00     0.002 C 
HETATM   18  C23 UNL     1      22.293   2.469  50.384  1.00  0.00     0.132 C 
HETATM   19  O4  UNL     1      23.290   2.636  51.305  1.00  0.00    -0.350 OA
HETATM   20  C24 UNL     1      24.303   3.464  51.832  1.00  0.00     0.222 A 
ENDROOT
BRANCH   1  21
HETATM   21  C4  UNL     1      26.629   1.837  51.905  1.00  0.00     0.007 C 
BRANCH  21  22
HETATM   22  C3  UNL     1      26.657   0.356  51.992  1.00  0.00     0.032 C 
BRANCH  22  23
HETATM   23  C2  UNL     1      27.186   0.032  53.397  1.00  0.00     0.114 C 
HETATM   24  C1  UNL     1      28.543  -0.598  53.354  1.00  0.00     0.039 C 
BRANCH  23  25
HETATM   25  O1  UNL     1      26.314  -0.837  54.050  1.00  0.00    -0.396 OA
HETATM   26  H5  UNL     1      25.600  -1.163  53.448  1.00  0.00     0.210 HD
ENDBRANCH  23  25
ENDBRANCH  22  23
ENDBRANCH  21  22
ENDBRANCH   1  21
BRANCH  15  27
HETATM   27  C18 UNL     1      25.588   6.004  48.846  1.00  0.00     0.050 C 
BRANCH  27  28
HETATM   28  C19 UNL     1      26.876   6.517  48.325  1.00  0.00     0.112 C 
BRANCH  28  29
HETATM   29  C20 UNL     1      28.020   5.597  48.596  1.00  0.00     0.139 C 
HETATM   30  O2  UNL     1      27.959   4.345  48.563  1.00  0.00    -0.650 OA
BRANCH  29  31
HETATM   31  O3  UNL     1      29.244   6.190  48.905  1.00  0.00    -0.776 OA
HETATM   32  H22 UNL     1      29.234   6.842  49.705  1.00  0.00     0.167 HD
ENDBRANCH  29  31
ENDBRANCH  28  29
ENDBRANCH  27  28
ENDBRANCH  15  27
TORSDOF 9
ENDMDL
MODEL 8
REMARK VINA RESULT:      -7.6      2.620      7.052
REMARK  9 active torsions:
REMARK  status: ('A' for Active; 'I' for Inactive)
REMARK    1  A    between atoms: C2_2  and  O1_3 
REMARK    2  A    between atoms: C2_2  and  C3_4 
REMARK    3  A    between atoms: C3_4  and  C4_5 
REMARK    4  A    between atoms: C4_5  and  C5_6 
REMARK    5  A    between atoms: C8_10  and  S1_13 
REMARK    6  A    between atoms: C17_20  and  C18_21 
REMARK    7  A    between atoms: C18_21  and  C19_22 
REMARK    8  A    between atoms: C19_22  and  C20_23 
REMARK    9  A    between atoms: C20_23  and  O3_25 
ROOT
HETATM    1  C5  UNL     1      26.432   2.269  50.805  1.00  0.00     0.036 C 
HETATM    2  C6  UNL     1      26.156   3.548  50.414  1.00  0.00    -0.019 A 
HETATM    3  C7  UNL     1      26.068   4.663  50.001  1.00  0.00     0.243 A 
HETATM    4  N1  UNL     1      25.781   5.873  49.623  1.00  0.00     0.019 N 
HETATM    5  C8  UNL     1      24.576   5.448  50.244  1.00  0.00     0.241 A 
HETATM    6  C9  UNL     1      23.289   5.475  50.707  1.00  0.00     0.137 A 
HETATM    7  C10 UNL     1      23.222   5.410  49.176  1.00  0.00    -0.023 A 
HETATM    8  S1  UNL     1      24.782   5.610  49.460  1.00  0.00    -0.028 SA
HETATM    9  C11 UNL     1      25.291   6.958  48.270  1.00  0.00     0.009 A 
HETATM   10  C12 UNL     1      24.294   7.687  47.605  1.00  0.00     0.018 A 
HETATM   11  C13 UNL     1      24.750   8.521  46.656  1.00  0.00     0.001 A 
HETATM   12  C14 UNL     1      26.022   8.765  46.248  1.00  0.00     0.001 A 
HETATM   13  C15 UNL     1      27.039   8.089  46.864  1.00  0.00     0.011 A 
HETATM   14  C16 UNL     1      26.596   7.253  47.814  1.00  0.00    -0.010 A 
HETATM   15  C17 UNL     1      26.968   6.339  48.993  1.00  0.00     0.240 C 
HETATM   16  C21 UNL     1      22.674   5.198  47.870  1.00  0.00     0.070 C 
HETATM   17  C22 UNL     1      22.865   3.618  47.952  1.00  0.00     0.002 C 
HETATM   18  C23 UNL     1      23.396   2.800  48.881  1.00  0.00     0.132 C 
HETATM   19  O4  UNL     1      23.928   3.079  50.109  1.00  0.00    -0.350 OA
HETATM   20  C24 UNL     1      24.804   3.873  50.878  1.00  0.00     0.222 A 
ENDROOT
BRANCH   1  21
HETATM   21  C4  UNL     1      26.400   2.027  52.329  1.00  0.00     0.007 C 
BRANCH  21  22
HETATM   22  C3  UNL     1      27.409   1.042  52.791  1.00  0.00     0.032 C 
BRANCH  22  23
HETATM   23  C2  UNL     1      26.699   0.187  53.851  1.00  0.00     0.114 C 
HETATM   24  C1  UNL     1      25.302  -0.164  53.447  1.00  0.00     0.039 C 
BRANCH  23  25
HETATM   25  O1  UNL     1      26.651   0.870  55.065  1.00  0.00    -0.396 OA
HETATM   26  H5  UNL     1      26.175   0.351  55.760  1.00  0.00     0.210 HD
ENDBRANCH  23  25
ENDBRANCH  22  23
ENDBRANCH  21  22
ENDBRANCH   1  21
BRANCH  15  27
HETATM   27  C18 UNL     1      27.803   5.263  48.410  1.00  0.00     0.050 C 
BRANCH  27  28
HETATM   28  C19 UNL     1      29.096   5.645  47.798  1.00  0.00     0.112 C 
BRANCH  28  29
HETATM   29  C20 UNL     1      30.018   6.317  48.761  1.00  0.00     0.139 C 
HETATM   30  O2  UNL     1      30.281   7.543  48.767  1.00  0.00    -0.650 OA
BRANCH  29  31
HETATM   31  O3  UNL     1      30.624   5.507  49.721  1.00  0.00    -0.776 OA
HETATM   32  H22 UNL     1      30.702   5.917  50.664  1.00  0.00     0.167 HD
ENDBRANCH  29  31
ENDBRANCH  28  29
ENDBRANCH  27  28
ENDBRANCH  15  27
TORSDOF 9
ENDMDL
MODEL 9
REMARK VINA RESULT:      -7.4      3.382      6.970
REMARK  9 active torsions:
REMARK  status: ('A' for Active; 'I' for Inactive)
REMARK    1  A    between atoms: C2_2  and  O1_3 
REMARK    2  A    between atoms: C2_2  and  C3_4 
REMARK    3  A    between atoms: C3_4  and  C4_5 
REMARK    4  A    between atoms: C4_5  and  C5_6 
REMARK    5  A    between atoms: C8_10  and  S1_13 
REMARK    6  A    between atoms: C17_20  and  C18_21 
REMARK    7  A    between atoms: C18_21  and  C19_22 
REMARK    8  A    between atoms: C19_22  and  C20_23 
REMARK    9  A    between atoms: C20_23  and  O3_25 
ROOT
HETATM    1  C5  UNL     1      18.321   3.092  50.210  1.00  0.00     0.036 C 
HETATM    2  C6  UNL     1      19.379   2.885  51.050  1.00  0.00    -0.019 A 
HETATM    3  C7  UNL     1      20.231   2.554  51.814  1.00  0.00     0.243 A 
HETATM    4  N1  UNL     1      21.254   2.368  52.595  1.00  0.00     0.019 N 
HETATM    5  C8  UNL     1      21.549   3.619  51.990  1.00  0.00     0.241 A 
HETATM    6  C9  UNL     1      22.218   4.771  51.682  1.00  0.00     0.137 A 
HETATM    7  C10 UNL     1      22.996   3.610  51.051  1.00  0.00    -0.023 A 
HETATM    8  S1  UNL     1      21.885   2.867  51.927  1.00  0.00    -0.028 SA
HETATM    9  C11 UNL     1      22.838   1.545  52.841  1.00  0.00     0.009 A 
HETATM   10  C12 UNL     1      24.239   1.593  52.836  1.00  0.00     0.018 A 
HETATM   11  C13 UNL     1      24.838   0.521  53.380  1.00  0.00     0.001 A 
HETATM   12  C14 UNL     1      24.295  -0.594  53.933  1.00  0.00     0.001 A 
HETATM   13  C15 UNL     1      22.932  -0.696  53.974  1.00  0.00     0.011 A 
HETATM   14  C16 UNL     1      22.323   0.369  53.433  1.00  0.00    -0.010 A 
HETATM   15  C17 UNL     1      20.996   1.118  53.224  1.00  0.00     0.240 C 
HETATM   16  C21 UNL     1      23.915   2.928  50.190  1.00  0.00     0.070 C 
HETATM   17  C22 UNL     1      22.913   2.960  48.951  1.00  0.00     0.002 C 
HETATM   18  C23 UNL     1      21.653   3.411  48.795  1.00  0.00     0.132 C 
HETATM   19  O4  UNL     1      20.819   4.037  49.680  1.00  0.00    -0.350 OA
HETATM   20  C24 UNL     1      20.248   4.063  50.968  1.00  0.00     0.222 A 
ENDROOT
BRANCH   1  21
HETATM   21  C4  UNL     1      17.454   4.326  50.539  1.00  0.00     0.007 C 
BRANCH  21  22
HETATM   22  C3  UNL     1      16.566   4.126  51.711  1.00  0.00     0.032 C 
BRANCH  22  23
HETATM   23  C2  UNL     1      15.136   4.116  51.151  1.00  0.00     0.114 C 
HETATM   24  C1  UNL     1      14.642   2.727  50.895  1.00  0.00     0.039 C 
BRANCH  23  25
HETATM   25  O1  UNL     1      15.082   4.833  49.957  1.00  0.00    -0.396 OA
HETATM   26  H5  UNL     1      14.185   5.218  49.799  1.00  0.00     0.210 HD
ENDBRANCH  23  25
ENDBRANCH  22  23
ENDBRANCH  21  22
ENDBRANCH   1  21
BRANCH  15  27
HETATM   27  C18 UNL     1      20.149   0.204  52.424  1.00  0.00     0.050 C 
BRANCH  27  28
HETATM   28  C19 UNL     1      19.234  -0.706  53.151  1.00  0.00     0.112 C 
BRANCH  28  29
HETATM   29  C20 UNL     1      17.841  -0.679  52.615  1.00  0.00     0.139 C 
HETATM   30  O2  UNL     1      16.804  -0.820  53.305  1.00  0.00    -0.650 OA
BRANCH  29  31
HETATM   31  O3  UNL     1      17.699  -0.479  51.243  1.00  0.00    -0.776 OA
HETATM   32  H22 UNL     1      17.170   0.363  50.968  1.00  0.00     0.167 HD
ENDBRANCH  29  31
ENDBRANCH  28  29
ENDBRANCH  27  28
ENDBRANCH  15  27
TORSDOF 9
ENDMDL
