MODEL 1
REMARK VINA RESULT:      -9.5      0.000      0.000
REMARK  6 active torsions:
REMARK  status: ('A' for Active; 'I' for Inactive)
REMARK    1  A    between atoms: C2_2  and  C3_3 
REMARK    2  A    between atoms: C4_4  and  C5_5 
REMARK    3  A    between atoms: C12_13  and  C13_14 
REMARK    4  A    between atoms: C13_14  and  C14_15 
REMARK    5  A    between atoms: C16_18  and  N2_19 
REMARK    6  A    between atoms: C17_21  and  N4_22 
ROOT
HETATM    1  C5  UNL     1      26.126  -0.424  52.634  1.00  0.00     0.009 C 
HETATM    2  C6  UNL     1      25.653   0.781  52.236  1.00  0.00    -0.034 C 
HETATM    3  C7  UNL     1      24.211   0.770  52.525  1.00  0.00     0.007 C 
HETATM    4  C8  UNL     1      23.294   1.654  52.205  1.00  0.00     0.000 C 
HETATM    5  C9  UNL     1      24.074   2.543  51.460  1.00  0.00     0.203 C 
HETATM    6  O1  UNL     1      24.359   3.853  51.675  1.00  0.00    -0.345 OA
HETATM    7  C10 UNL     1      25.191   4.419  50.596  1.00  0.00     0.102 A 
HETATM    8  C11 UNL     1      24.949   5.548  49.883  1.00  0.00     0.047 A 
HETATM    9  C12 UNL     1      25.778   5.994  48.884  1.00  0.00    -0.051 A 
HETATM   10  C18 UNL     1      26.904   5.248  48.603  1.00  0.00     0.010 A 
HETATM   11  C19 UNL     1      27.167   4.078  49.332  1.00  0.00     0.040 A 
HETATM   12  C20 UNL     1      26.332   3.609  50.358  1.00  0.00     0.102 A 
HETATM   13  O2  UNL     1      26.988   2.433  50.808  1.00  0.00    -0.344 OA
HETATM   14  C21 UNL     1      26.666   1.705  51.873  1.00  0.00     0.214 C 
ENDROOT
BRANCH   9  15
HETATM   15  C13 UNL     1      25.338   7.242  48.238  1.00  0.00     0.082 C 
BRANCH  15  16
HETATM   16  C14 UNL     1      26.259   8.379  48.436  1.00  0.00     0.010 A 
HETATM   17  C15 UNL     1      26.350   8.934  49.720  1.00  0.00     0.147 A 
HETATM   18  N1  UNL     1      27.158   9.958  49.960  1.00  0.00    -0.075 NA
HETATM   19  C16 UNL     1      27.927  10.519  49.013  1.00  0.00     0.721 A 
HETATM   20  N3  UNL     1      27.864  10.011  47.769  1.00  0.00    -0.045 NA
HETATM   21  C17 UNL     1      27.060   8.986  47.508  1.00  0.00     0.148 A 
BRANCH  19  22
HETATM   22  N2  UNL     1      28.772  11.614  49.333  1.00  0.00    -0.231 N 
HETATM   23  H17 UNL     1      28.693  12.382  48.605  1.00  0.00     0.174 HD
HETATM   24  H18 UNL     1      29.394  11.647  50.190  1.00  0.00     0.174 HD
ENDBRANCH  19  22
BRANCH  21  25
HETATM   25  N4  UNL     1      27.011   8.464  46.191  1.00  0.00    -0.383 N 
HETATM   26  H19 UNL     1      27.097   7.411  46.223  1.00  0.00     0.157 HD
HETATM   27  H20 UNL     1      26.929   8.620  45.164  1.00  0.00     0.157 HD
ENDBRANCH  21  25
ENDBRANCH  15  16
ENDBRANCH   9  15
BRANCH   1  28
HETATM   28  C4  UNL     1      27.207  -1.372  52.805  1.00  0.00    -0.003 C 
HETATM   29  C3  UNL     1      28.449  -1.695  53.083  1.00  0.00    -0.027 C 
BRANCH  29  30
HETATM   30  C2  UNL     1      29.515  -0.737  53.457  1.00  0.00     0.022 C 
HETATM   31  C1  UNL     1      28.938   0.113  54.582  1.00  0.00     0.009 C 
ENDBRANCH  29  30
ENDBRANCH   1  28
TORSDOF 6
ENDMDL
MODEL 2
REMARK VINA RESULT:      -9.5      2.990      4.609
REMARK  6 active torsions:
REMARK  status: ('A' for Active; 'I' for Inactive)
REMARK    1  A    between atoms: C2_2  and  C3_3 
REMARK    2  A    between atoms: C4_4  and  C5_5 
REMARK    3  A    between atoms: C12_13  and  C13_14 
REMARK    4  A    between atoms: C13_14  and  C14_15 
REMARK    5  A    between atoms: C16_18  and  N2_19 
REMARK    6  A    between atoms: C17_21  and  N4_22 
ROOT
HETATM    1  C5  UNL     1      23.373   1.113  52.537  1.00  0.00     0.009 C 
HETATM    2  C6  UNL     1      24.385   1.647  51.814  1.00  0.00    -0.034 C 
HETATM    3  C7  UNL     1      25.609   0.962  52.255  1.00  0.00     0.007 C 
HETATM    4  C8  UNL     1      26.859   1.217  51.945  1.00  0.00     0.000 C 
HETATM    5  C9  UNL     1      26.679   2.352  51.151  1.00  0.00     0.203 C 
HETATM    6  O1  UNL     1      26.974   2.565  49.843  1.00  0.00    -0.345 OA
HETATM    7  C10 UNL     1      26.655   3.943  49.424  1.00  0.00     0.102 A 
HETATM    8  C11 UNL     1      27.479   4.816  48.790  1.00  0.00     0.047 A 
HETATM    9  C12 UNL     1      27.098   6.090  48.448  1.00  0.00    -0.051 A 
HETATM   10  C18 UNL     1      25.817   6.486  48.772  1.00  0.00     0.010 A 
HETATM   11  C19 UNL     1      24.954   5.593  49.428  1.00  0.00     0.040 A 
HETATM   12  C20 UNL     1      25.326   4.287  49.783  1.00  0.00     0.102 A 
HETATM   13  O2  UNL     1      24.156   3.765  50.396  1.00  0.00    -0.344 OA
HETATM   14  C21 UNL     1      23.954   2.505  50.770  1.00  0.00     0.214 C 
ENDROOT
BRANCH   9  15
HETATM   15  C13 UNL     1      28.139   6.874  47.762  1.00  0.00     0.082 C 
BRANCH  15  16
HETATM   16  C14 UNL     1      29.513   6.573  48.212  1.00  0.00     0.010 A 
HETATM   17  C15 UNL     1      30.096   5.373  47.783  1.00  0.00     0.147 A 
HETATM   18  N1  UNL     1      31.327   5.047  48.156  1.00  0.00    -0.075 NA
HETATM   19  C16 UNL     1      32.080   5.825  48.949  1.00  0.00     0.721 A 
HETATM   20  N3  UNL     1      31.550   6.985  49.379  1.00  0.00    -0.045 NA
HETATM   21  C17 UNL     1      30.320   7.330  49.017  1.00  0.00     0.148 A 
BRANCH  19  22
HETATM   22  N2  UNL     1      33.392   5.420  49.313  1.00  0.00    -0.231 N 
HETATM   23  H17 UNL     1      33.375   4.807  50.178  1.00  0.00     0.174 HD
HETATM   24  H18 UNL     1      34.263   5.700  48.779  1.00  0.00     0.174 HD
ENDBRANCH  19  22
BRANCH  21  25
HETATM   25  N4  UNL     1      29.782   8.557  49.479  1.00  0.00    -0.383 N 
HETATM   26  H19 UNL     1      28.877   8.761  48.973  1.00  0.00     0.157 HD
HETATM   27  H20 UNL     1      29.848   9.391  50.100  1.00  0.00     0.157 HD
ENDBRANCH  21  25
ENDBRANCH  15  16
ENDBRANCH   9  15
BRANCH   1  28
HETATM   28  C4  UNL     1      21.972   1.027  52.894  1.00  0.00    -0.003 C 
HETATM   29  C3  UNL     1      20.977   0.615  53.644  1.00  0.00    -0.027 C 
BRANCH  29  30
HETATM   30  C2  UNL     1      21.113  -0.248  54.841  1.00  0.00     0.022 C 
HETATM   31  C1  UNL     1      21.445  -1.640  54.318  1.00  0.00     0.009 C 
ENDBRANCH  29  30
ENDBRANCH   1  28
TORSDOF 6
ENDMDL
MODEL 3
REMARK VINA RESULT:      -9.0      4.843      7.415
REMARK  6 active torsions:
REMARK  status: ('A' for Active; 'I' for Inactive)
REMARK    1  A    between atoms: C2_2  and  C3_3 
REMARK    2  A    between atoms: C4_4  and  C5_5 
REMARK    3  A    between atoms: C12_13  and  C13_14 
REMARK    4  A    between atoms: C13_14  and  C14_15 
REMARK    5  A    between atoms: C16_18  and  N2_19 
REMARK    6  A    between atoms: C17_21  and  N4_22 
ROOT
HETATM    1  C5  UNL     1      33.330   5.697  48.132  1.00  0.00     0.009 C 
HETATM    2  C6  UNL     1      32.119   6.298  48.199  1.00  0.00    -0.034 C 
HETATM    3  C7  UNL     1      32.374   7.691  48.596  1.00  0.00     0.007 C 
HETATM    4  C8  UNL     1      31.517   8.632  48.917  1.00  0.00     0.000 C 
HETATM    5  C9  UNL     1      30.327   7.904  48.841  1.00  0.00     0.203 C 
HETATM    6  O1  UNL     1      29.244   8.071  48.039  1.00  0.00    -0.345 OA
HETATM    7  C10 UNL     1      28.183   7.090  48.336  1.00  0.00     0.102 A 
HETATM    8  C11 UNL     1      26.876   7.352  48.588  1.00  0.00     0.047 A 
HETATM    9  C12 UNL     1      25.956   6.371  48.868  1.00  0.00    -0.051 A 
HETATM   10  C18 UNL     1      26.399   5.065  48.892  1.00  0.00     0.010 A 
HETATM   11  C19 UNL     1      27.749   4.779  48.633  1.00  0.00     0.040 A 
HETATM   12  C20 UNL     1      28.701   5.769  48.343  1.00  0.00     0.102 A 
HETATM   13  O2  UNL     1      29.896   5.030  48.143  1.00  0.00    -0.344 OA
HETATM   14  C21 UNL     1      31.056   5.505  47.697  1.00  0.00     0.214 C 
ENDROOT
BRANCH   9  15
HETATM   15  C13 UNL     1      24.590   6.866  49.106  1.00  0.00     0.082 C 
BRANCH  15  16
HETATM   16  C14 UNL     1      23.778   5.995  49.979  1.00  0.00     0.010 A 
HETATM   17  C15 UNL     1      22.965   5.030  49.369  1.00  0.00     0.147 A 
HETATM   18  N1  UNL     1      22.211   4.219  50.099  1.00  0.00    -0.075 NA
HETATM   19  C16 UNL     1      22.177   4.265  51.442  1.00  0.00     0.721 A 
HETATM   20  N3  UNL     1      22.946   5.180  52.059  1.00  0.00    -0.045 NA
HETATM   21  C17 UNL     1      23.708   6.001  51.345  1.00  0.00     0.148 A 
BRANCH  19  22
HETATM   22  N2  UNL     1      21.349   3.369  52.168  1.00  0.00    -0.231 N 
HETATM   23  H17 UNL     1      21.816   2.424  52.279  1.00  0.00     0.174 HD
HETATM   24  H18 UNL     1      20.393   3.626  52.545  1.00  0.00     0.174 HD
ENDBRANCH  19  22
BRANCH  21  25
HETATM   25  N4  UNL     1      24.512   6.956  52.016  1.00  0.00    -0.383 N 
HETATM   26  H19 UNL     1      23.944   7.435  52.766  1.00  0.00     0.157 HD
HETATM   27  H20 UNL     1      25.430   7.436  52.133  1.00  0.00     0.157 HD
ENDBRANCH  21  25
ENDBRANCH  15  16
ENDBRANCH   9  15
BRANCH   1  28
HETATM   28  C4  UNL     1      34.163   4.538  47.885  1.00  0.00    -0.003 C 
HETATM   29  C3  UNL     1      34.369   3.246  47.773  1.00  0.00    -0.027 C 
BRANCH  29  30
HETATM   30  C2  UNL     1      33.336   2.200  47.949  1.00  0.00     0.022 C 
HETATM   31  C1  UNL     1      32.461   2.261  46.703  1.00  0.00     0.009 C 
ENDBRANCH  29  30
ENDBRANCH   1  28
TORSDOF 6
ENDMDL
MODEL 4
REMARK VINA RESULT:      -9.0      2.927      4.201
REMARK  6 active torsions:
REMARK  status: ('A' for Active; 'I' for Inactive)
REMARK    1  A    between atoms: C2_2  and  C3_3 
REMARK    2  A    between atoms: C4_4  and  C5_5 
REMARK    3  A    between atoms: C12_13  and  C13_14 
REMARK    4  A    between atoms: C13_14  and  C14_15 
REMARK    5  A    between atoms: C16_18  and  N2_19 
REMARK    6  A    between atoms: C17_21  and  N4_22 
ROOT
HETATM    1  C5  UNL     1      22.566   1.878  52.491  1.00  0.00     0.009 C 
HETATM    2  C6  UNL     1      23.077   3.019  51.972  1.00  0.00    -0.034 C 
HETATM    3  C7  UNL     1      21.970   3.987  51.942  1.00  0.00     0.007 C 
HETATM    4  C8  UNL     1      21.933   5.187  51.411  1.00  0.00     0.000 C 
HETATM    5  C9  UNL     1      23.204   5.229  50.832  1.00  0.00     0.203 C 
HETATM    6  O1  UNL     1      24.251   6.059  51.072  1.00  0.00    -0.345 OA
HETATM    7  C10 UNL     1      25.395   5.771  50.186  1.00  0.00     0.102 A 
HETATM    8  C11 UNL     1      26.072   6.656  49.411  1.00  0.00     0.047 A 
HETATM    9  C12 UNL     1      27.122   6.294  48.604  1.00  0.00    -0.051 A 
HETATM   10  C18 UNL     1      27.493   4.965  48.592  1.00  0.00     0.010 A 
HETATM   11  C19 UNL     1      26.802   4.038  49.388  1.00  0.00     0.040 A 
HETATM   12  C20 UNL     1      25.728   4.392  50.220  1.00  0.00     0.102 A 
HETATM   13  O2  UNL     1      25.362   3.162  50.828  1.00  0.00    -0.344 OA
HETATM   14  C21 UNL     1      24.486   2.998  51.815  1.00  0.00     0.214 C 
ENDROOT
BRANCH   9  15
HETATM   15  C13 UNL     1      27.723   7.407  47.849  1.00  0.00     0.082 C 
BRANCH  15  16
HETATM   16  C14 UNL     1      29.152   7.632  48.145  1.00  0.00     0.010 A 
HETATM   17  C15 UNL     1      30.098   6.930  47.384  1.00  0.00     0.147 A 
HETATM   18  N1  UNL     1      31.396   7.089  47.604  1.00  0.00    -0.075 NA
HETATM   19  C16 UNL     1      31.883   7.913  48.547  1.00  0.00     0.721 A 
HETATM   20  N3  UNL     1      31.002   8.601  49.295  1.00  0.00    -0.045 NA
HETATM   21  C17 UNL     1      29.697   8.456  49.091  1.00  0.00     0.148 A 
BRANCH  19  22
HETATM   22  N2  UNL     1      33.284   8.039  48.734  1.00  0.00    -0.231 N 
HETATM   23  H17 UNL     1      33.525   8.133  49.762  1.00  0.00     0.174 HD
HETATM   24  H18 UNL     1      33.986   8.036  47.940  1.00  0.00     0.174 HD
ENDBRANCH  19  22
BRANCH  21  25
HETATM   25  N4  UNL     1      28.787   9.193  49.888  1.00  0.00    -0.383 N 
HETATM   26  H19 UNL     1      28.412   8.577  50.661  1.00  0.00     0.157 HD
HETATM   27  H20 UNL     1      28.285  10.085  50.092  1.00  0.00     0.157 HD
ENDBRANCH  21  25
ENDBRANCH  15  16
ENDBRANCH   9  15
BRANCH   1  28
HETATM   28  C4  UNL     1      22.704   0.500  52.914  1.00  0.00    -0.003 C 
HETATM   29  C3  UNL     1      22.324  -0.564  53.583  1.00  0.00    -0.027 C 
BRANCH  29  30
HETATM   30  C2  UNL     1      21.127  -0.641  54.452  1.00  0.00     0.022 C 
HETATM   31  C1  UNL     1      19.926  -0.525  53.521  1.00  0.00     0.009 C 
ENDBRANCH  29  30
ENDBRANCH   1  28
TORSDOF 6
ENDMDL
MODEL 5
REMARK VINA RESULT:      -9.0      1.791      3.738
REMARK  6 active torsions:
REMARK  status: ('A' for Active; 'I' for Inactive)
REMARK    1  A    between atoms: C2_2  and  C3_3 
REMARK    2  A    between atoms: C4_4  and  C5_5 
REMARK    3  A    between atoms: C12_13  and  C13_14 
REMARK    4  A    between atoms: C13_14  and  C14_15 
REMARK    5  A    between atoms: C16_18  and  N2_19 
REMARK    6  A    between atoms: C17_21  and  N4_22 
ROOT
HETATM    1  C5  UNL     1      24.347   0.023  53.516  1.00  0.00     0.009 C 
HETATM    2  C6  UNL     1      24.892   0.887  52.627  1.00  0.00    -0.034 C 
HETATM    3  C7  UNL     1      26.349   0.790  52.802  1.00  0.00     0.007 C 
HETATM    4  C8  UNL     1      27.299   1.518  52.263  1.00  0.00     0.000 C 
HETATM    5  C9  UNL     1      26.520   2.436  51.554  1.00  0.00     0.203 C 
HETATM    6  O1  UNL     1      26.447   2.682  50.221  1.00  0.00    -0.345 OA
HETATM    7  C10 UNL     1      25.515   3.784  49.915  1.00  0.00     0.102 A 
HETATM    8  C11 UNL     1      25.769   4.883  49.161  1.00  0.00     0.047 A 
HETATM    9  C12 UNL     1      24.839   5.869  48.938  1.00  0.00    -0.051 A 
HETATM   10  C18 UNL     1      23.595   5.720  49.516  1.00  0.00     0.010 A 
HETATM   11  C19 UNL     1      23.318   4.587  50.299  1.00  0.00     0.040 A 
HETATM   12  C20 UNL     1      24.256   3.570  50.535  1.00  0.00     0.102 A 
HETATM   13  O2  UNL     1      23.546   2.647  51.346  1.00  0.00    -0.344 OA
HETATM   14  C21 UNL     1      23.957   1.436  51.713  1.00  0.00     0.214 C 
ENDROOT
BRANCH   9  15
HETATM   15  C13 UNL     1      25.313   6.973  48.088  1.00  0.00     0.082 C 
BRANCH  15  16
HETATM   16  C14 UNL     1      26.451   7.724  48.655  1.00  0.00     0.010 A 
HETATM   17  C15 UNL     1      27.692   7.620  48.012  1.00  0.00     0.147 A 
HETATM   18  N1  UNL     1      28.752   8.269  48.476  1.00  0.00    -0.075 NA
HETATM   19  C16 UNL     1      28.710   9.052  49.566  1.00  0.00     0.721 A 
HETATM   20  N3  UNL     1      27.534   9.173  50.208  1.00  0.00    -0.045 NA
HETATM   21  C17 UNL     1      26.461   8.532  49.760  1.00  0.00     0.148 A 
BRANCH  19  22
HETATM   22  N2  UNL     1      29.880   9.720  50.013  1.00  0.00    -0.231 N 
HETATM   23  H17 UNL     1      30.341   9.191  50.807  1.00  0.00     0.174 HD
HETATM   24  H18 UNL     1      30.234  10.628  49.596  1.00  0.00     0.174 HD
ENDBRANCH  19  22
BRANCH  21  25
HETATM   25  N4  UNL     1      25.231   8.676  50.449  1.00  0.00    -0.383 N 
HETATM   26  H19 UNL     1      24.660   9.443  50.001  1.00  0.00     0.157 HD
HETATM   27  H20 UNL     1      24.590   8.381  51.217  1.00  0.00     0.157 HD
ENDBRANCH  21  25
ENDBRANCH  15  16
ENDBRANCH   9  15
BRANCH   1  28
HETATM   28  C4  UNL     1      23.202  -0.612  54.134  1.00  0.00    -0.003 C 
HETATM   29  C3  UNL     1      21.924  -0.695  54.426  1.00  0.00    -0.027 C 
BRANCH  29  30
HETATM   30  C2  UNL     1      20.888   0.274  53.999  1.00  0.00     0.022 C 
HETATM   31  C1  UNL     1      19.766  -0.556  53.388  1.00  0.00     0.009 C 
ENDBRANCH  29  30
ENDBRANCH   1  28
TORSDOF 6
ENDMDL
MODEL 6
REMARK VINA RESULT:      -9.0      1.783      3.718
REMARK  6 active torsions:
REMARK  status: ('A' for Active; 'I' for Inactive)
REMARK    1  A    between atoms: C2_2  and  C3_3 
REMARK    2  A    between atoms: C4_4  and  C5_5 
REMARK    3  A    between atoms: C12_13  and  C13_14 
REMARK    4  A    between atoms: C13_14  and  C14_15 
REMARK    5  A    between atoms: C16_18  and  N2_19 
REMARK    6  A    between atoms: C17_21  and  N4_22 
ROOT
HETATM    1  C5  UNL     1      23.386   1.059  52.331  1.00  0.00     0.009 C 
HETATM    2  C6  UNL     1      24.345   1.711  51.632  1.00  0.00    -0.034 C 
HETATM    3  C7  UNL     1      25.621   1.079  52.000  1.00  0.00     0.007 C 
HETATM    4  C8  UNL     1      26.845   1.439  51.688  1.00  0.00     0.000 C 
HETATM    5  C9  UNL     1      26.573   2.615  50.984  1.00  0.00     0.203 C 
HETATM    6  O1  UNL     1      26.824   2.942  49.690  1.00  0.00    -0.345 OA
HETATM    7  C10 UNL     1      26.407   4.323  49.382  1.00  0.00     0.102 A 
HETATM    8  C11 UNL     1      27.158   5.293  48.801  1.00  0.00     0.047 A 
HETATM    9  C12 UNL     1      26.687   6.561  48.561  1.00  0.00    -0.051 A 
HETATM   10  C18 UNL     1      25.390   6.845  48.936  1.00  0.00     0.010 A 
HETATM   11  C19 UNL     1      24.602   5.851  49.538  1.00  0.00     0.040 A 
HETATM   12  C20 UNL     1      25.066   4.551  49.788  1.00  0.00     0.102 A 
HETATM   13  O2  UNL     1      23.947   3.908  50.380  1.00  0.00    -0.344 OA
HETATM   14  C21 UNL     1      23.837   2.613  50.663  1.00  0.00     0.214 C 
ENDROOT
BRANCH   9  15
HETATM   15  C13 UNL     1      27.659   7.461  47.917  1.00  0.00     0.082 C 
BRANCH  15  16
HETATM   16  C14 UNL     1      27.319   8.893  48.031  1.00  0.00     0.010 A 
HETATM   17  C15 UNL     1      26.562   9.472  47.003  1.00  0.00     0.147 A 
HETATM   18  N1  UNL     1      26.227  10.754  47.048  1.00  0.00    -0.075 NA
HETATM   19  C16 UNL     1      26.581  11.567  48.057  1.00  0.00     0.721 A 
HETATM   20  N3  UNL     1      27.309  11.043  49.060  1.00  0.00    -0.045 NA
HETATM   21  C17 UNL     1      27.654   9.761  49.034  1.00  0.00     0.148 A 
BRANCH  19  22
HETATM   22  N2  UNL     1      26.191  12.932  48.047  1.00  0.00    -0.231 N 
HETATM   23  H17 UNL     1      26.644  13.463  48.845  1.00  0.00     0.174 HD
HETATM   24  H18 UNL     1      25.535  13.352  47.328  1.00  0.00     0.174 HD
ENDBRANCH  19  22
BRANCH  21  25
HETATM   25  N4  UNL     1      28.418   9.230  50.102  1.00  0.00    -0.383 N 
HETATM   26  H19 UNL     1      29.376   8.954  49.752  1.00  0.00     0.157 HD
HETATM   27  H20 UNL     1      28.498   8.967  51.108  1.00  0.00     0.157 HD
ENDBRANCH  21  25
ENDBRANCH  15  16
ENDBRANCH   9  15
BRANCH   1  28
HETATM   28  C4  UNL     1      22.002   0.854  52.704  1.00  0.00    -0.003 C 
HETATM   29  C3  UNL     1      21.057   0.409  53.499  1.00  0.00    -0.027 C 
BRANCH  29  30
HETATM   30  C2  UNL     1      21.284  -0.312  54.773  1.00  0.00     0.022 C 
HETATM   31  C1  UNL     1      21.800  -1.692  54.386  1.00  0.00     0.009 C 
ENDBRANCH  29  30
ENDBRANCH   1  28
TORSDOF 6
ENDMDL
MODEL 7
REMARK VINA RESULT:      -8.9      7.233      9.781
REMARK  6 active torsions:
REMARK  status: ('A' for Active; 'I' for Inactive)
REMARK    1  A    between atoms: C2_2  and  C3_3 
REMARK    2  A    between atoms: C4_4  and  C5_5 
REMARK    3  A    between atoms: C12_13  and  C13_14 
REMARK    4  A    between atoms: C13_14  and  C14_15 
REMARK    5  A    between atoms: C16_18  and  N2_19 
REMARK    6  A    between atoms: C17_21  and  N4_22 
ROOT
HETATM    1  C5  UNL     1      25.633   1.046  53.388  1.00  0.00     0.009 C 
HETATM    2  C6  UNL     1      24.502   1.027  52.644  1.00  0.00    -0.034 C 
HETATM    3  C7  UNL     1      24.668   2.070  51.621  1.00  0.00     0.007 C 
HETATM    4  C8  UNL     1      23.796   2.522  50.748  1.00  0.00     0.000 C 
HETATM    5  C9  UNL     1      22.674   1.783  51.132  1.00  0.00     0.203 C 
HETATM    6  O1  UNL     1      21.943   0.872  50.440  1.00  0.00    -0.345 OA
HETATM    7  C10 UNL     1      20.801   0.370  51.227  1.00  0.00     0.102 A 
HETATM    8  C11 UNL     1      19.500   0.325  50.842  1.00  0.00     0.047 A 
HETATM    9  C12 UNL     1      18.497  -0.150  51.651  1.00  0.00    -0.051 A 
HETATM   10  C18 UNL     1      18.844  -0.597  52.908  1.00  0.00     0.010 A 
HETATM   11  C19 UNL     1      20.186  -0.556  53.320  1.00  0.00     0.040 A 
HETATM   12  C20 UNL     1      21.224  -0.076  52.506  1.00  0.00     0.102 A 
HETATM   13  O2  UNL     1      22.380  -0.237  53.315  1.00  0.00    -0.344 OA
HETATM   14  C21 UNL     1      23.642  -0.063  52.934  1.00  0.00     0.214 C 
ENDROOT
BRANCH   9  15
HETATM   15  C13 UNL     1      17.157  -0.118  51.041  1.00  0.00     0.082 C 
BRANCH  15  16
HETATM   16  C14 UNL     1      16.178   0.702  51.784  1.00  0.00     0.010 A 
HETATM   17  C15 UNL     1      16.187   2.087  51.570  1.00  0.00     0.147 A 
HETATM   18  N1  UNL     1      15.334   2.877  52.209  1.00  0.00    -0.075 NA
HETATM   19  C16 UNL     1      14.425   2.415  53.083  1.00  0.00     0.721 A 
HETATM   20  N3  UNL     1      14.389   1.089  53.311  1.00  0.00    -0.045 NA
HETATM   21  C17 UNL     1      15.235   0.282  52.681  1.00  0.00     0.148 A 
BRANCH  19  22
HETATM   22  N2  UNL     1      13.538   3.312  53.735  1.00  0.00    -0.231 N 
HETATM   23  H17 UNL     1      13.286   4.125  53.104  1.00  0.00     0.174 HD
HETATM   24  H18 UNL     1      13.182   3.172  54.724  1.00  0.00     0.174 HD
ENDBRANCH  19  22
BRANCH  21  25
HETATM   25  N4  UNL     1      15.178  -1.111  52.934  1.00  0.00    -0.383 N 
HETATM   26  H19 UNL     1      14.550  -1.297  53.763  1.00  0.00     0.157 HD
HETATM   27  H20 UNL     1      15.468  -2.083  52.690  1.00  0.00     0.157 HD
ENDBRANCH  21  25
ENDBRANCH  15  16
ENDBRANCH   9  15
BRANCH   1  28
HETATM   28  C4  UNL     1      26.446   0.551  54.480  1.00  0.00    -0.003 C 
HETATM   29  C3  UNL     1      27.587   0.201  55.026  1.00  0.00    -0.027 C 
BRANCH  29  30
HETATM   30  C2  UNL     1      28.906   0.256  54.352  1.00  0.00     0.022 C 
HETATM   31  C1  UNL     1      28.948  -0.945  53.416  1.00  0.00     0.009 C 
ENDBRANCH  29  30
ENDBRANCH   1  28
TORSDOF 6
ENDMDL
MODEL 8
REMARK VINA RESULT:      -8.8      7.453      9.355
REMARK  6 active torsions:
REMARK  status: ('A' for Active; 'I' for Inactive)
REMARK    1  A    between atoms: C2_2  and  C3_3 
REMARK    2  A    between atoms: C4_4  and  C5_5 
REMARK    3  A    between atoms: C12_13  and  C13_14 
REMARK    4  A    between atoms: C13_14  and  C14_15 
REMARK    5  A    between atoms: C16_18  and  N2_19 
REMARK    6  A    between atoms: C17_21  and  N4_22 
ROOT
HETATM    1  C5  UNL     1      25.313  -0.224  53.538  1.00  0.00     0.009 C 
HETATM    2  C6  UNL     1      23.960  -0.187  53.516  1.00  0.00    -0.034 C 
HETATM    3  C7  UNL     1      23.509  -1.054  54.615  1.00  0.00     0.007 C 
HETATM    4  C8  UNL     1      22.292  -1.443  54.919  1.00  0.00     0.000 C 
HETATM    5  C9  UNL     1      21.587  -0.858  53.863  1.00  0.00     0.203 C 
HETATM    6  O1  UNL     1      20.609   0.083  53.875  1.00  0.00    -0.345 OA
HETATM    7  C10 UNL     1      20.110   0.374  52.517  1.00  0.00     0.102 A 
HETATM    8  C11 UNL     1      18.817   0.372  52.104  1.00  0.00     0.047 A 
HETATM    9  C12 UNL     1      18.445   0.645  50.811  1.00  0.00    -0.051 A 
HETATM   10  C18 UNL     1      19.442   0.931  49.902  1.00  0.00     0.010 A 
HETATM   11  C19 UNL     1      20.784   0.937  50.316  1.00  0.00     0.040 A 
HETATM   12  C20 UNL     1      21.182   0.663  51.633  1.00  0.00     0.102 A 
HETATM   13  O2  UNL     1      22.595   0.796  51.587  1.00  0.00    -0.344 OA
HETATM   14  C21 UNL     1      23.426   0.778  52.625  1.00  0.00     0.214 C 
ENDROOT
BRANCH   9  15
HETATM   15  C13 UNL     1      16.992   0.595  50.571  1.00  0.00     0.082 C 
BRANCH  15  16
HETATM   16  C14 UNL     1      16.209   1.503  51.434  1.00  0.00     0.010 A 
HETATM   17  C15 UNL     1      16.525   2.868  51.406  1.00  0.00     0.147 A 
HETATM   18  N1  UNL     1      15.859   3.733  52.160  1.00  0.00    -0.075 NA
HETATM   19  C16 UNL     1      14.859   3.369  52.980  1.00  0.00     0.721 A 
HETATM   20  N3  UNL     1      14.531   2.065  53.031  1.00  0.00    -0.045 NA
HETATM   21  C17 UNL     1      15.186   1.183  52.284  1.00  0.00     0.148 A 
BRANCH  19  22
HETATM   22  N2  UNL     1      14.184   4.343  53.762  1.00  0.00    -0.231 N 
HETATM   23  H17 UNL     1      14.779   5.212  53.885  1.00  0.00     0.174 HD
HETATM   24  H18 UNL     1      13.213   4.205  54.163  1.00  0.00     0.174 HD
ENDBRANCH  19  22
BRANCH  21  25
HETATM   25  N4  UNL     1      14.822  -0.184  52.351  1.00  0.00    -0.383 N 
HETATM   26  H19 UNL     1      14.517  -0.423  53.334  1.00  0.00     0.157 HD
HETATM   27  H20 UNL     1      14.705  -1.108  51.882  1.00  0.00     0.157 HD
ENDBRANCH  21  25
ENDBRANCH  15  16
ENDBRANCH   9  15
BRANCH   1  28
HETATM   28  C4  UNL     1      26.605   0.171  53.015  1.00  0.00    -0.003 C 
HETATM   29  C3  UNL     1      27.911   0.287  53.083  1.00  0.00    -0.027 C 
BRANCH  29  30
HETATM   30  C2  UNL     1      28.747  -0.160  54.221  1.00  0.00     0.022 C 
HETATM   31  C1  UNL     1      29.853  -1.016  53.616  1.00  0.00     0.009 C 
ENDBRANCH  29  30
ENDBRANCH   1  28
TORSDOF 6
ENDMDL
MODEL 9
REMARK VINA RESULT:      -8.7      5.063      9.115
REMARK  6 active torsions:
REMARK  status: ('A' for Active; 'I' for Inactive)
REMARK    1  A    between atoms: C2_2  and  C3_3 
REMARK    2  A    between atoms: C4_4  and  C5_5 
REMARK    3  A    between atoms: C12_13  and  C13_14 
REMARK    4  A    between atoms: C13_14  and  C14_15 
REMARK    5  A    between atoms: C16_18  and  N2_19 
REMARK    6  A    between atoms: C17_21  and  N4_22 
ROOT
HETATM    1  C5  UNL     1      22.696   6.777  47.473  1.00  0.00     0.009 C 
HETATM    2  C6  UNL     1      22.817   6.112  48.646  1.00  0.00    -0.034 C 
HETATM    3  C7  UNL     1      21.991   6.842  49.618  1.00  0.00     0.007 C 
HETATM    4  C8  UNL     1      21.884   6.665  50.915  1.00  0.00     0.000 C 
HETATM    5  C9  UNL     1      22.827   5.649  51.093  1.00  0.00     0.203 C 
HETATM    6  O1  UNL     1      22.674   4.378  51.546  1.00  0.00    -0.345 OA
HETATM    7  C10 UNL     1      23.962   3.662  51.617  1.00  0.00     0.102 A 
HETATM    8  C11 UNL     1      24.466   2.992  52.684  1.00  0.00     0.047 A 
HETATM    9  C12 UNL     1      25.685   2.361  52.663  1.00  0.00    -0.051 A 
HETATM   10  C18 UNL     1      26.419   2.422  51.497  1.00  0.00     0.010 A 
HETATM   11  C19 UNL     1      25.910   3.111  50.384  1.00  0.00     0.040 A 
HETATM   12  C20 UNL     1      24.665   3.760  50.388  1.00  0.00     0.102 A 
HETATM   13  O2  UNL     1      24.567   4.293  49.076  1.00  0.00    -0.344 OA
HETATM   14  C21 UNL     1      23.498   4.872  48.536  1.00  0.00     0.214 C 
ENDROOT
BRANCH   9  15
HETATM   15  C13 UNL     1      26.045   1.687  53.922  1.00  0.00     0.082 C 
BRANCH  15  16
HETATM   16  C14 UNL     1      26.807   0.436  53.738  1.00  0.00     0.010 A 
HETATM   17  C15 UNL     1      26.156  -0.646  53.131  1.00  0.00     0.147 A 
HETATM   18  N1  UNL     1      26.787  -1.797  52.940  1.00  0.00    -0.075 NA
HETATM   19  C16 UNL     1      28.064  -1.999  53.306  1.00  0.00     0.721 A 
HETATM   20  N3  UNL     1      28.719  -0.981  53.892  1.00  0.00    -0.045 NA
HETATM   21  C17 UNL     1      28.104   0.180  54.092  1.00  0.00     0.148 A 
BRANCH  19  22
HETATM   22  N2  UNL     1      28.685  -3.255  53.074  1.00  0.00    -0.231 N 
HETATM   23  H17 UNL     1      28.161  -3.808  52.336  1.00  0.00     0.174 HD
HETATM   24  H18 UNL     1      29.557  -3.582  53.579  1.00  0.00     0.174 HD
ENDBRANCH  19  22
BRANCH  21  25
HETATM   25  N4  UNL     1      28.813   1.240  54.708  1.00  0.00    -0.383 N 
HETATM   26  H19 UNL     1      28.513   2.161  54.286  1.00  0.00     0.157 HD
HETATM   27  H20 UNL     1      29.518   1.567  55.404  1.00  0.00     0.157 HD
ENDBRANCH  21  25
ENDBRANCH  15  16
ENDBRANCH   9  15
BRANCH   1  28
HETATM   28  C4  UNL     1      23.008   6.946  46.069  1.00  0.00    -0.003 C 
HETATM   29  C3  UNL     1      23.598   7.550  45.064  1.00  0.00    -0.027 C 
BRANCH  29  30
HETATM   30  C2  UNL     1      24.484   8.731  45.182  1.00  0.00     0.022 C 
HETATM   31  C1  UNL     1      25.709   8.423  44.330  1.00  0.00     0.009 C 
ENDBRANCH  29  30
ENDBRANCH   1  28
TORSDOF 6
ENDMDL
