MODEL 1
REMARK VINA RESULT:      -9.6      0.000      0.000
REMARK  5 active torsions:
REMARK  status: ('A' for Active; 'I' for Inactive)
REMARK    1  A    between atoms: C5_7  and  C6_8 
REMARK    2  A    between atoms: C9_11  and  O1_12 
REMARK    3  A    between atoms: O1_12  and  C10_13 
REMARK    4  A    between atoms: C10_13  and  C11_14 
REMARK    5  A    between atoms: C15_18  and  C16_19 
ROOT
HETATM    1  C6  UNL     1      25.597   3.941  50.098  1.00  0.00    -0.023 A 
HETATM    2  C7  UNL     1      26.695   3.440  49.445  1.00  0.00     0.013 A 
HETATM    3  C8  UNL     1      27.405   4.374  48.740  1.00  0.00     0.039 A 
HETATM    4  C9  UNL     1      27.062   5.699  48.681  1.00  0.00     0.090 A 
HETATM    5  C18 UNL     1      25.959   6.200  49.343  1.00  0.00     0.068 A 
HETATM    6 CL1  UNL     1      25.405   7.817  49.403  1.00  0.00    -0.081 Cl
HETATM    7  C19 UNL     1      25.203   5.341  50.062  1.00  0.00     0.036 A 
ENDROOT
BRANCH   1   8
HETATM    8  C5  UNL     1      24.644   2.878  50.744  1.00  0.00     0.124 A 
HETATM    9  N2  UNL     1      23.503   2.985  50.000  1.00  0.00    -0.180 NA
HETATM   10  N1  UNL     1      22.470   2.283  50.289  1.00  0.00    -0.188 NA
HETATM   11  C4  UNL     1      22.608   1.426  51.431  1.00  0.00     0.173 A 
HETATM   12  C3  UNL     1      23.847   1.805  51.655  1.00  0.00     0.059 A 
HETATM   13  C2  UNL     1      23.586   0.690  52.580  1.00  0.00     0.061 A 
HETATM   14  C20 UNL     1      25.005   2.100  51.939  1.00  0.00     0.027 A 
HETATM   15  C21 UNL     1      26.165   2.651  52.063  1.00  0.00     0.030 C 
HETATM   16  C22 UNL     1      27.375   2.165  52.872  1.00  0.00     0.184 C 
HETATM   17  O2  UNL     1      26.932   1.024  53.413  1.00  0.00    -0.320 OA
HETATM   18  C23 UNL     1      26.917  -0.054  54.139  1.00  0.00     0.276 C 
HETATM   19  O3  UNL     1      27.931  -0.163  54.832  1.00  0.00    -0.263 OA
HETATM   20  C24 UNL     1      25.671  -0.889  53.898  1.00  0.00     0.226 C 
HETATM   21  N3  UNL     1      24.633  -0.121  53.195  1.00  0.00    -0.401 N 
HETATM   22  H21 UNL     1      24.662  -0.645  52.208  1.00  0.00     0.154 HD
HETATM   23  C1  UNL     1      22.634  -0.362  53.163  1.00  0.00     0.041 C 
ENDBRANCH   1   8
BRANCH   4  24
HETATM   24  O1  UNL     1      27.741   6.679  47.978  1.00  0.00    -0.345 OA
BRANCH  24  25
HETATM   25  C10 UNL     1      28.710   7.411  48.699  1.00  0.00     0.214 C 
BRANCH  25  26
HETATM   26  C11 UNL     1      30.071   6.735  48.411  1.00  0.00    -0.034 A 
HETATM   27  C12 UNL     1      31.004   7.705  48.969  1.00  0.00     0.009 A 
HETATM   28  C13 UNL     1      32.364   7.509  48.982  1.00  0.00     0.001 A 
HETATM   29  C14 UNL     1      32.799   6.264  48.409  1.00  0.00     0.009 A 
HETATM   30  C15 UNL     1      31.920   5.382  47.897  1.00  0.00    -0.029 A 
HETATM   31  C17 UNL     1      30.607   5.615  47.891  1.00  0.00     0.019 A 
BRANCH  30  32
HETATM   32  C16 UNL     1      32.208   4.029  47.349  1.00  0.00     0.261 C 
HETATM   33  F1  UNL     1      31.138   3.442  46.762  1.00  0.00    -0.251 F 
ENDBRANCH  30  32
ENDBRANCH  25  26
ENDBRANCH  24  25
ENDBRANCH   4  24
TORSDOF 5
ENDMDL
MODEL 2
REMARK VINA RESULT:      -9.5      1.691      2.243
REMARK  5 active torsions:
REMARK  status: ('A' for Active; 'I' for Inactive)
REMARK    1  A    between atoms: C5_7  and  C6_8 
REMARK    2  A    between atoms: C9_11  and  O1_12 
REMARK    3  A    between atoms: O1_12  and  C10_13 
REMARK    4  A    between atoms: C10_13  and  C11_14 
REMARK    5  A    between atoms: C15_18  and  C16_19 
ROOT
HETATM    1  C6  UNL     1      25.280   3.716  50.273  1.00  0.00    -0.023 A 
HETATM    2  C7  UNL     1      26.366   3.253  49.575  1.00  0.00     0.013 A 
HETATM    3  C8  UNL     1      27.064   4.225  48.910  1.00  0.00     0.039 A 
HETATM    4  C9  UNL     1      26.719   5.551  48.930  1.00  0.00     0.090 A 
HETATM    5  C18 UNL     1      25.627   6.013  49.638  1.00  0.00     0.068 A 
HETATM    6 CL1  UNL     1      25.074   7.623  49.796  1.00  0.00    -0.081 Cl
HETATM    7  C19 UNL     1      24.884   5.114  50.321  1.00  0.00     0.036 A 
ENDROOT
BRANCH   1   8
HETATM    8  C5  UNL     1      24.338   2.617  50.876  1.00  0.00     0.124 A 
HETATM    9  N2  UNL     1      23.255   2.638  50.042  1.00  0.00    -0.180 NA
HETATM   10  N1  UNL     1      22.243   1.886  50.272  1.00  0.00    -0.188 NA
HETATM   11  C4  UNL     1      22.336   1.070  51.448  1.00  0.00     0.173 A 
HETATM   12  C3  UNL     1      23.531   1.525  51.755  1.00  0.00     0.059 A 
HETATM   13  C2  UNL     1      23.260   0.423  52.692  1.00  0.00     0.061 A 
HETATM   14  C20 UNL     1      24.645   1.894  52.120  1.00  0.00     0.027 A 
HETATM   15  C21 UNL     1      25.759   2.514  52.316  1.00  0.00     0.030 C 
HETATM   16  C22 UNL     1      26.926   2.120  53.233  1.00  0.00     0.184 C 
HETATM   17  O2  UNL     1      26.504   0.971  53.773  1.00  0.00    -0.320 OA
HETATM   18  C23 UNL     1      26.492  -0.085  54.529  1.00  0.00     0.276 C 
HETATM   19  O3  UNL     1      27.451  -0.117  55.302  1.00  0.00    -0.263 OA
HETATM   20  C24 UNL     1      25.317  -0.997  54.218  1.00  0.00     0.226 C 
HETATM   21  N3  UNL     1      24.297  -0.309  53.413  1.00  0.00    -0.401 N 
HETATM   22  H21 UNL     1      24.433  -0.858  52.448  1.00  0.00     0.154 HD
HETATM   23  C1  UNL     1      22.323  -0.666  53.232  1.00  0.00     0.041 C 
ENDBRANCH   1   8
BRANCH   4  24
HETATM   24  O1  UNL     1      27.385   6.569  48.270  1.00  0.00    -0.345 OA
BRANCH  24  25
HETATM   25  C10 UNL     1      28.686   6.270  47.808  1.00  0.00     0.214 C 
BRANCH  25  26
HETATM   26  C11 UNL     1      29.629   7.310  48.456  1.00  0.00    -0.034 A 
HETATM   27  C12 UNL     1      30.798   6.496  48.762  1.00  0.00     0.009 A 
HETATM   28  C13 UNL     1      31.940   7.013  49.323  1.00  0.00     0.001 A 
HETATM   29  C14 UNL     1      31.900   8.427  49.579  1.00  0.00     0.009 A 
HETATM   30  C15 UNL     1      30.808   9.162  49.290  1.00  0.00    -0.029 A 
HETATM   31  C17 UNL     1      29.712   8.620  48.757  1.00  0.00     0.019 A 
BRANCH  30  32
HETATM   32  C16 UNL     1      30.647  10.636  49.420  1.00  0.00     0.261 C 
HETATM   33  F1  UNL     1      31.397  11.343  48.540  1.00  0.00    -0.251 F 
ENDBRANCH  30  32
ENDBRANCH  25  26
ENDBRANCH  24  25
ENDBRANCH   4  24
TORSDOF 5
ENDMDL
MODEL 3
REMARK VINA RESULT:      -9.5      1.061      1.400
REMARK  5 active torsions:
REMARK  status: ('A' for Active; 'I' for Inactive)
REMARK    1  A    between atoms: C5_7  and  C6_8 
REMARK    2  A    between atoms: C9_11  and  O1_12 
REMARK    3  A    between atoms: O1_12  and  C10_13 
REMARK    4  A    between atoms: C10_13  and  C11_14 
REMARK    5  A    between atoms: C15_18  and  C16_19 
ROOT
HETATM    1  C6  UNL     1      24.608   3.917  50.736  1.00  0.00    -0.023 A 
HETATM    2  C7  UNL     1      25.658   3.647  49.895  1.00  0.00     0.013 A 
HETATM    3  C8  UNL     1      26.241   4.759  49.350  1.00  0.00     0.039 A 
HETATM    4  C9  UNL     1      25.825   6.038  49.612  1.00  0.00     0.090 A 
HETATM    5  C18 UNL     1      24.771   6.304  50.463  1.00  0.00     0.068 A 
HETATM    6 CL1  UNL     1      24.142   7.826  50.923  1.00  0.00    -0.081 Cl
HETATM    7  C19 UNL     1      24.139   5.259  51.042  1.00  0.00     0.036 A 
ENDROOT
BRANCH   1   8
HETATM    8  C5  UNL     1      23.784   2.673  51.217  1.00  0.00     0.124 A 
HETATM    9  N2  UNL     1      22.720   2.651  50.360  1.00  0.00    -0.180 NA
HETATM   10  N1  UNL     1      21.793   1.775  50.498  1.00  0.00    -0.188 NA
HETATM   11  C4  UNL     1      21.956   0.873  51.601  1.00  0.00     0.173 A 
HETATM   12  C3  UNL     1      23.088   1.427  51.978  1.00  0.00     0.059 A 
HETATM   13  C2  UNL     1      22.924   0.223  52.809  1.00  0.00     0.061 A 
HETATM   14  C20 UNL     1      24.148   1.881  52.401  1.00  0.00     0.027 A 
HETATM   15  C21 UNL     1      25.183   2.598  52.679  1.00  0.00     0.030 C 
HETATM   16  C22 UNL     1      26.371   2.253  53.589  1.00  0.00     0.184 C 
HETATM   17  O2  UNL     1      26.071   1.021  54.017  1.00  0.00    -0.320 OA
HETATM   18  C23 UNL     1      26.162  -0.093  54.678  1.00  0.00     0.276 C 
HETATM   19  O3  UNL     1      27.107  -0.090  55.470  1.00  0.00    -0.263 OA
HETATM   20  C24 UNL     1      25.101  -1.096  54.259  1.00  0.00     0.226 C 
HETATM   21  N3  UNL     1      24.025  -0.454  53.490  1.00  0.00    -0.401 N 
HETATM   22  H21 UNL     1      24.236  -0.897  52.485  1.00  0.00     0.154 HD
HETATM   23  C1  UNL     1      22.105  -1.005  53.227  1.00  0.00     0.041 C 
ENDBRANCH   1   8
BRANCH   4  24
HETATM   24  O1  UNL     1      26.375   7.192  49.082  1.00  0.00    -0.345 OA
BRANCH  24  25
HETATM   25  C10 UNL     1      26.971   7.073  47.807  1.00  0.00     0.214 C 
BRANCH  25  26
HETATM   26  C11 UNL     1      28.492   6.934  48.047  1.00  0.00    -0.034 A 
HETATM   27  C12 UNL     1      28.815   8.226  48.638  1.00  0.00     0.009 A 
HETATM   28  C13 UNL     1      30.079   8.555  49.066  1.00  0.00     0.001 A 
HETATM   29  C14 UNL     1      31.061   7.519  48.896  1.00  0.00     0.009 A 
HETATM   30  C15 UNL     1      30.742   6.332  48.347  1.00  0.00    -0.029 A 
HETATM   31  C17 UNL     1      29.506   6.055  47.931  1.00  0.00     0.019 A 
BRANCH  30  32
HETATM   32  C16 UNL     1      31.622   5.143  48.181  1.00  0.00     0.261 C 
HETATM   33  F1  UNL     1      31.119   4.209  47.339  1.00  0.00    -0.251 F 
ENDBRANCH  30  32
ENDBRANCH  25  26
ENDBRANCH  24  25
ENDBRANCH   4  24
TORSDOF 5
ENDMDL
MODEL 4
REMARK VINA RESULT:      -9.3      3.506      8.753
REMARK  5 active torsions:
REMARK  status: ('A' for Active; 'I' for Inactive)
REMARK    1  A    between atoms: C5_7  and  C6_8 
REMARK    2  A    between atoms: C9_11  and  O1_12 
REMARK    3  A    between atoms: O1_12  and  C10_13 
REMARK    4  A    between atoms: C10_13  and  C11_14 
REMARK    5  A    between atoms: C15_18  and  C16_19 
ROOT
HETATM    1  C6  UNL     1      24.652   4.855  49.971  1.00  0.00    -0.023 A 
HETATM    2  C7  UNL     1      24.884   4.203  51.154  1.00  0.00     0.013 A 
HETATM    3  C8  UNL     1      24.226   3.008  51.277  1.00  0.00     0.039 A 
HETATM    4  C9  UNL     1      23.403   2.496  50.309  1.00  0.00     0.090 A 
HETATM    5  C18 UNL     1      23.175   3.154  49.117  1.00  0.00     0.068 A 
HETATM    6 CL1  UNL     1      22.211   2.651  47.798  1.00  0.00    -0.081 Cl
HETATM    7  C19 UNL     1      23.788   4.342  48.919  1.00  0.00     0.036 A 
ENDROOT
BRANCH   1   8
HETATM    8  C5  UNL     1      25.217   6.314  49.875  1.00  0.00     0.124 A 
HETATM    9  N2  UNL     1      24.233   7.071  50.446  1.00  0.00    -0.180 NA
HETATM   10  N1  UNL     1      24.339   8.348  50.491  1.00  0.00    -0.188 NA
HETATM   11  C4  UNL     1      25.525   8.889  49.893  1.00  0.00     0.173 A 
HETATM   12  C3  UNL     1      25.981   7.704  49.554  1.00  0.00     0.059 A 
HETATM   13  C2  UNL     1      27.062   8.658  49.257  1.00  0.00     0.061 A 
HETATM   14  C20 UNL     1      26.483   6.639  49.199  1.00  0.00     0.027 A 
HETATM   15  C21 UNL     1      26.727   5.418  48.865  1.00  0.00     0.030 C 
HETATM   16  C22 UNL     1      28.057   4.796  48.417  1.00  0.00     0.184 C 
HETATM   17  O2  UNL     1      28.902   5.833  48.465  1.00  0.00    -0.320 OA
HETATM   18  C23 UNL     1      29.999   6.514  48.333  1.00  0.00     0.276 C 
HETATM   19  O3  UNL     1      30.898   5.856  47.804  1.00  0.00    -0.263 OA
HETATM   20  C24 UNL     1      29.873   7.917  48.903  1.00  0.00     0.226 C 
HETATM   21  N3  UNL     1      28.467   8.284  49.128  1.00  0.00    -0.401 N 
HETATM   22  H21 UNL     1      28.462   8.286  50.247  1.00  0.00     0.154 HD
HETATM   23  C1  UNL     1      27.592  10.097  49.211  1.00  0.00     0.041 C 
ENDBRANCH   1   8
BRANCH   4  24
HETATM   24  O1  UNL     1      22.710   1.300  50.388  1.00  0.00    -0.345 OA
BRANCH  24  25
HETATM   25  C10 UNL     1      21.644   1.252  51.313  1.00  0.00     0.214 C 
BRANCH  25  26
HETATM   26  C11 UNL     1      22.154   0.437  52.524  1.00  0.00    -0.034 A 
HETATM   27  C12 UNL     1      20.925  -0.191  52.992  1.00  0.00     0.009 A 
HETATM   28  C13 UNL     1      20.891  -1.064  54.052  1.00  0.00     0.001 A 
HETATM   29  C14 UNL     1      22.167  -1.321  54.662  1.00  0.00     0.009 A 
HETATM   30  C15 UNL     1      23.292  -0.729  54.214  1.00  0.00    -0.029 A 
HETATM   31  C17 UNL     1      23.281   0.124  53.190  1.00  0.00     0.019 A 
BRANCH  30  32
HETATM   32  C16 UNL     1      24.685  -0.956  54.686  1.00  0.00     0.261 C 
HETATM   33  F1  UNL     1      25.617  -0.804  53.714  1.00  0.00    -0.251 F 
ENDBRANCH  30  32
ENDBRANCH  25  26
ENDBRANCH  24  25
ENDBRANCH   4  24
TORSDOF 5
ENDMDL
MODEL 5
REMARK VINA RESULT:      -9.2      4.206      8.660
REMARK  5 active torsions:
REMARK  status: ('A' for Active; 'I' for Inactive)
REMARK    1  A    between atoms: C5_7  and  C6_8 
REMARK    2  A    between atoms: C9_11  and  O1_12 
REMARK    3  A    between atoms: O1_12  and  C10_13 
REMARK    4  A    between atoms: C10_13  and  C11_14 
REMARK    5  A    between atoms: C15_18  and  C16_19 
ROOT
HETATM    1  C6  UNL     1      25.508   6.690  48.997  1.00  0.00    -0.023 A 
HETATM    2  C7  UNL     1      25.394   5.785  50.022  1.00  0.00     0.013 A 
HETATM    3  C8  UNL     1      24.290   4.979  49.942  1.00  0.00     0.039 A 
HETATM    4  C9  UNL     1      23.368   5.058  48.931  1.00  0.00     0.090 A 
HETATM    5  C18 UNL     1      23.489   5.968  47.899  1.00  0.00     0.068 A 
HETATM    6 CL1  UNL     1      22.457   6.183  46.553  1.00  0.00    -0.081 Cl
HETATM    7  C19 UNL     1      24.553   6.802  47.907  1.00  0.00     0.036 A 
ENDROOT
BRANCH   1   8
HETATM    8  C5  UNL     1      26.638   7.763  49.159  1.00  0.00     0.124 A 
HETATM    9  N2  UNL     1      25.955   8.887  49.531  1.00  0.00    -0.180 NA
HETATM   10  N1  UNL     1      26.573   9.997  49.703  1.00  0.00    -0.188 NA
HETATM   11  C4  UNL     1      27.986   9.960  49.457  1.00  0.00     0.173 A 
HETATM   12  C3  UNL     1      27.969   8.682  49.146  1.00  0.00     0.059 A 
HETATM   13  C2  UNL     1      29.388   9.073  49.198  1.00  0.00     0.061 A 
HETATM   14  C20 UNL     1      28.049   7.494  48.840  1.00  0.00     0.027 A 
HETATM   15  C21 UNL     1      27.833   6.275  48.479  1.00  0.00     0.030 C 
HETATM   16  C22 UNL     1      28.843   5.130  48.321  1.00  0.00     0.184 C 
HETATM   17  O2  UNL     1      30.003   5.708  48.657  1.00  0.00    -0.320 OA
HETATM   18  C23 UNL     1      31.279   5.851  48.851  1.00  0.00     0.276 C 
HETATM   19  O3  UNL     1      31.918   4.855  48.507  1.00  0.00    -0.263 OA
HETATM   20  C24 UNL     1      31.614   7.191  49.483  1.00  0.00     0.226 C 
HETATM   21  N3  UNL     1      30.487   8.131  49.387  1.00  0.00    -0.401 N 
HETATM   22  H21 UNL     1      30.199   8.172  50.467  1.00  0.00     0.154 HD
HETATM   23  C1  UNL     1      30.467  10.145  49.398  1.00  0.00     0.041 C 
ENDBRANCH   1   8
BRANCH   4  24
HETATM   24  O1  UNL     1      22.234   4.275  48.809  1.00  0.00    -0.345 OA
BRANCH  24  25
HETATM   25  C10 UNL     1      22.438   2.933  48.420  1.00  0.00     0.214 C 
BRANCH  25  26
HETATM   26  C11 UNL     1      22.283   2.079  49.699  1.00  0.00    -0.034 A 
HETATM   27  C12 UNL     1      20.961   1.498  49.505  1.00  0.00     0.009 A 
HETATM   28  C13 UNL     1      20.399   0.611  50.392  1.00  0.00     0.001 A 
HETATM   29  C14 UNL     1      21.222   0.290  51.526  1.00  0.00     0.009 A 
HETATM   30  C15 UNL     1      22.441   0.840  51.688  1.00  0.00    -0.029 A 
HETATM   31  C17 UNL     1      22.947   1.707  50.811  1.00  0.00     0.019 A 
BRANCH  30  32
HETATM   32  C16 UNL     1      23.433   0.546  52.757  1.00  0.00     0.261 C 
HETATM   33  F1  UNL     1      23.459  -0.756  53.130  1.00  0.00    -0.251 F 
ENDBRANCH  30  32
ENDBRANCH  25  26
ENDBRANCH  24  25
ENDBRANCH   4  24
TORSDOF 5
ENDMDL
MODEL 6
REMARK VINA RESULT:      -9.1      1.864      2.826
REMARK  5 active torsions:
REMARK  status: ('A' for Active; 'I' for Inactive)
REMARK    1  A    between atoms: C5_7  and  C6_8 
REMARK    2  A    between atoms: C9_11  and  O1_12 
REMARK    3  A    between atoms: O1_12  and  C10_13 
REMARK    4  A    between atoms: C10_13  and  C11_14 
REMARK    5  A    between atoms: C15_18  and  C16_19 
ROOT
HETATM    1  C6  UNL     1      23.831   3.806  51.085  1.00  0.00    -0.023 A 
HETATM    2  C7  UNL     1      23.374   5.062  51.392  1.00  0.00     0.013 A 
HETATM    3  C8  UNL     1      24.153   6.079  50.907  1.00  0.00     0.039 A 
HETATM    4  C9  UNL     1      25.295   5.875  50.177  1.00  0.00     0.090 A 
HETATM    5  C18 UNL     1      25.749   4.608  49.867  1.00  0.00     0.068 A 
HETATM    6 CL1  UNL     1      27.124   4.173  48.950  1.00  0.00    -0.081 Cl
HETATM    7  C19 UNL     1      25.035   3.549  50.311  1.00  0.00     0.036 A 
ENDROOT
BRANCH   1   8
HETATM    8  C5  UNL     1      23.089   2.620  51.790  1.00  0.00     0.124 A 
HETATM    9  N2  UNL     1      21.861   2.616  51.190  1.00  0.00    -0.180 NA
HETATM   10  N1  UNL     1      20.956   1.789  51.567  1.00  0.00    -0.188 NA
HETATM   11  C4  UNL     1      21.326   0.921  52.647  1.00  0.00     0.173 A 
HETATM   12  C3  UNL     1      22.532   1.435  52.741  1.00  0.00     0.059 A 
HETATM   13  C2  UNL     1      22.512   0.270  53.641  1.00  0.00     0.061 A 
HETATM   14  C20 UNL     1      23.676   1.855  52.901  1.00  0.00     0.027 A 
HETATM   15  C21 UNL     1      24.773   2.533  52.912  1.00  0.00     0.030 C 
HETATM   16  C22 UNL     1      26.119   2.167  53.554  1.00  0.00     0.184 C 
HETATM   17  O2  UNL     1      25.875   0.966  54.092  1.00  0.00    -0.320 OA
HETATM   18  C23 UNL     1      26.069  -0.126  54.767  1.00  0.00     0.276 C 
HETATM   19  O3  UNL     1      27.165  -0.138  55.332  1.00  0.00    -0.263 OA
HETATM   20  C24 UNL     1      24.905  -1.094  54.637  1.00  0.00     0.226 C 
HETATM   21  N3  UNL     1      23.710  -0.431  54.094  1.00  0.00    -0.401 N 
HETATM   22  H21 UNL     1      23.678  -0.919  53.089  1.00  0.00     0.154 HD
HETATM   23  C1  UNL     1      21.761  -0.903  54.284  1.00  0.00     0.041 C 
ENDBRANCH   1   8
BRANCH   4  24
HETATM   24  O1  UNL     1      26.119   6.865  49.673  1.00  0.00    -0.345 OA
BRANCH  24  25
HETATM   25  C10 UNL     1      25.766   7.392  48.411  1.00  0.00     0.214 C 
BRANCH  25  26
HETATM   26  C11 UNL     1      27.082   7.527  47.611  1.00  0.00    -0.034 A 
HETATM   27  C12 UNL     1      26.697   8.471  46.570  1.00  0.00     0.009 A 
HETATM   28  C13 UNL     1      27.577   8.936  45.623  1.00  0.00     0.001 A 
HETATM   29  C14 UNL     1      28.916   8.427  45.742  1.00  0.00     0.009 A 
HETATM   30  C15 UNL     1      29.251   7.553  46.711  1.00  0.00    -0.029 A 
HETATM   31  C17 UNL     1      28.364   7.115  47.605  1.00  0.00     0.019 A 
BRANCH  30  32
HETATM   32  C16 UNL     1      30.602   7.005  47.009  1.00  0.00     0.261 C 
HETATM   33  F1  UNL     1      30.581   5.728  47.462  1.00  0.00    -0.251 F 
ENDBRANCH  30  32
ENDBRANCH  25  26
ENDBRANCH  24  25
ENDBRANCH   4  24
TORSDOF 5
ENDMDL
MODEL 7
REMARK VINA RESULT:      -9.1      3.955      9.360
REMARK  5 active torsions:
REMARK  status: ('A' for Active; 'I' for Inactive)
REMARK    1  A    between atoms: C5_7  and  C6_8 
REMARK    2  A    between atoms: C9_11  and  O1_12 
REMARK    3  A    between atoms: O1_12  and  C10_13 
REMARK    4  A    between atoms: C10_13  and  C11_14 
REMARK    5  A    between atoms: C15_18  and  C16_19 
ROOT
HETATM    1  C6  UNL     1      24.885   4.690  49.600  1.00  0.00    -0.023 A 
HETATM    2  C7  UNL     1      23.996   4.130  48.718  1.00  0.00     0.013 A 
HETATM    3  C8  UNL     1      23.012   3.384  49.308  1.00  0.00     0.039 A 
HETATM    4  C9  UNL     1      22.909   3.203  50.662  1.00  0.00     0.090 A 
HETATM    5  C18 UNL     1      23.804   3.772  51.547  1.00  0.00     0.068 A 
HETATM    6 CL1  UNL     1      23.810   3.676  53.254  1.00  0.00    -0.081 Cl
HETATM    7  C19 UNL     1      24.808   4.524  51.042  1.00  0.00     0.036 A 
ENDROOT
BRANCH   1   8
HETATM    8  C5  UNL     1      26.140   5.376  48.959  1.00  0.00     0.124 A 
HETATM    9  N2  UNL     1      27.085   4.390  48.983  1.00  0.00    -0.180 NA
HETATM   10  N1  UNL     1      28.278   4.622  48.574  1.00  0.00    -0.188 NA
HETATM   11  C4  UNL     1      28.526   5.963  48.129  1.00  0.00     0.173 A 
HETATM   12  C3  UNL     1      27.293   6.348  48.374  1.00  0.00     0.059 A 
HETATM   13  C2  UNL     1      27.942   7.470  47.675  1.00  0.00     0.061 A 
HETATM   14  C20 UNL     1      26.166   6.796  48.572  1.00  0.00     0.027 A 
HETATM   15  C21 UNL     1      24.956   7.020  48.957  1.00  0.00     0.030 C 
HETATM   16  C22 UNL     1      24.036   8.194  48.590  1.00  0.00     0.184 C 
HETATM   17  O2  UNL     1      24.799   8.923  47.768  1.00  0.00    -0.320 OA
HETATM   18  C23 UNL     1      25.168   9.906  47.002  1.00  0.00     0.276 C 
HETATM   19  O3  UNL     1      24.338  10.817  46.979  1.00  0.00    -0.263 OA
HETATM   20  C24 UNL     1      26.502   9.635  46.327  1.00  0.00     0.226 C 
HETATM   21  N3  UNL     1      27.215   8.519  46.966  1.00  0.00    -0.401 N 
HETATM   22  H21 UNL     1      27.127   7.761  46.149  1.00  0.00     0.154 HD
HETATM   23  C1  UNL     1      29.183   8.094  47.024  1.00  0.00     0.041 C 
ENDBRANCH   1   8
BRANCH   4  24
HETATM   24  O1  UNL     1      21.940   2.454  51.307  1.00  0.00    -0.345 OA
BRANCH  24  25
HETATM   25  C10 UNL     1      21.955   1.064  51.059  1.00  0.00     0.214 C 
BRANCH  25  26
HETATM   26  C11 UNL     1      22.400   0.390  52.378  1.00  0.00    -0.034 A 
HETATM   27  C12 UNL     1      21.122  -0.038  52.934  1.00  0.00     0.009 A 
HETATM   28  C13 UNL     1      21.019  -0.738  54.111  1.00  0.00     0.001 A 
HETATM   29  C14 UNL     1      22.273  -1.027  54.753  1.00  0.00     0.009 A 
HETATM   30  C15 UNL     1      23.443  -0.620  54.223  1.00  0.00    -0.029 A 
HETATM   31  C17 UNL     1      23.501   0.069  53.083  1.00  0.00     0.019 A 
BRANCH  30  32
HETATM   32  C16 UNL     1      24.814  -0.911  54.723  1.00  0.00     0.261 C 
HETATM   33  F1  UNL     1      24.850  -1.275  56.028  1.00  0.00    -0.251 F 
ENDBRANCH  30  32
ENDBRANCH  25  26
ENDBRANCH  24  25
ENDBRANCH   4  24
TORSDOF 5
ENDMDL
MODEL 8
REMARK VINA RESULT:      -9.0      4.061      5.477
REMARK  5 active torsions:
REMARK  status: ('A' for Active; 'I' for Inactive)
REMARK    1  A    between atoms: C5_7  and  C6_8 
REMARK    2  A    between atoms: C9_11  and  O1_12 
REMARK    3  A    between atoms: O1_12  and  C10_13 
REMARK    4  A    between atoms: C10_13  and  C11_14 
REMARK    5  A    between atoms: C15_18  and  C16_19 
ROOT
HETATM    1  C6  UNL     1      23.704   3.411  51.330  1.00  0.00    -0.023 A 
HETATM    2  C7  UNL     1      23.216   4.244  52.305  1.00  0.00     0.013 A 
HETATM    3  C8  UNL     1      22.413   5.248  51.836  1.00  0.00     0.039 A 
HETATM    4  C9  UNL     1      22.112   5.420  50.510  1.00  0.00     0.090 A 
HETATM    5  C18 UNL     1      22.602   4.576  49.533  1.00  0.00     0.068 A 
HETATM    6 CL1  UNL     1      22.309   4.625  47.849  1.00  0.00    -0.081 Cl
HETATM    7  C19 UNL     1      23.405   3.559  49.915  1.00  0.00     0.036 A 
ENDROOT
BRANCH   1   8
HETATM    8  C5  UNL     1      24.787   2.378  51.796  1.00  0.00     0.124 A 
HETATM    9  N2  UNL     1      25.954   2.914  51.329  1.00  0.00    -0.180 NA
HETATM   10  N1  UNL     1      27.064   2.292  51.487  1.00  0.00    -0.188 NA
HETATM   11  C4  UNL     1      26.971   1.025  52.152  1.00  0.00     0.173 A 
HETATM   12  C3  UNL     1      25.668   1.117  52.298  1.00  0.00     0.059 A 
HETATM   13  C2  UNL     1      26.081  -0.073  53.059  1.00  0.00     0.061 A 
HETATM   14  C20 UNL     1      24.452   1.118  52.476  1.00  0.00     0.027 A 
HETATM   15  C21 UNL     1      23.180   1.331  52.448  1.00  0.00     0.030 C 
HETATM   16  C22 UNL     1      22.077   0.656  53.275  1.00  0.00     0.184 C 
HETATM   17  O2  UNL     1      22.762  -0.204  54.038  1.00  0.00    -0.320 OA
HETATM   18  C23 UNL     1      22.993  -1.151  54.897  1.00  0.00     0.276 C 
HETATM   19  O3  UNL     1      21.953  -1.661  55.320  1.00  0.00    -0.263 OA
HETATM   20  C24 UNL     1      24.478  -1.333  55.161  1.00  0.00     0.226 C 
HETATM   21  N3  UNL     1      25.295  -0.665  54.137  1.00  0.00    -0.401 N 
HETATM   22  H21 UNL     1      25.717   0.162  54.759  1.00  0.00     0.154 HD
HETATM   23  C1  UNL     1      27.176  -1.042  53.524  1.00  0.00     0.041 C 
ENDBRANCH   1   8
BRANCH   4  24
HETATM   24  O1  UNL     1      21.314   6.422  49.986  1.00  0.00    -0.345 OA
BRANCH  24  25
HETATM   25  C10 UNL     1      21.506   7.717  50.513  1.00  0.00     0.214 C 
BRANCH  25  26
HETATM   26  C11 UNL     1      22.843   8.232  49.931  1.00  0.00    -0.034 A 
HETATM   27  C12 UNL     1      22.384   9.016  48.792  1.00  0.00     0.009 A 
HETATM   28  C13 UNL     1      23.240   9.716  47.976  1.00  0.00     0.001 A 
HETATM   29  C14 UNL     1      24.628   9.624  48.338  1.00  0.00     0.009 A 
HETATM   30  C15 UNL     1      25.031   8.893  49.394  1.00  0.00    -0.029 A 
HETATM   31  C17 UNL     1      24.171   8.216  50.155  1.00  0.00     0.019 A 
BRANCH  30  32
HETATM   32  C16 UNL     1      26.412   8.768  49.937  1.00  0.00     0.261 C 
HETATM   33  F1  UNL     1      26.985   7.566  49.690  1.00  0.00    -0.251 F 
ENDBRANCH  30  32
ENDBRANCH  25  26
ENDBRANCH  24  25
ENDBRANCH   4  24
TORSDOF 5
ENDMDL
MODEL 9
REMARK VINA RESULT:      -8.8      3.444      4.958
REMARK  5 active torsions:
REMARK  status: ('A' for Active; 'I' for Inactive)
REMARK    1  A    between atoms: C5_7  and  C6_8 
REMARK    2  A    between atoms: C9_11  and  O1_12 
REMARK    3  A    between atoms: O1_12  and  C10_13 
REMARK    4  A    between atoms: C10_13  and  C11_14 
REMARK    5  A    between atoms: C15_18  and  C16_19 
ROOT
HETATM    1  C6  UNL     1      21.528   2.085  51.219  1.00  0.00    -0.023 A 
HETATM    2  C7  UNL     1      21.016   3.288  51.634  1.00  0.00     0.013 A 
HETATM    3  C8  UNL     1      21.041   4.270  50.680  1.00  0.00     0.039 A 
HETATM    4  C9  UNL     1      21.532   4.082  49.415  1.00  0.00     0.090 A 
HETATM    5  C18 UNL     1      22.043   2.868  49.000  1.00  0.00     0.068 A 
HETATM    6 CL1  UNL     1      22.664   2.452  47.463  1.00  0.00    -0.081 Cl
HETATM    7  C19 UNL     1      22.055   1.847  49.885  1.00  0.00     0.036 A 
ENDROOT
BRANCH   1   8
HETATM    8  C5  UNL     1      21.708   1.000  52.335  1.00  0.00     0.124 A 
HETATM    9  N2  UNL     1      20.527   0.312  52.299  1.00  0.00    -0.180 NA
HETATM   10  N1  UNL     1      20.301  -0.636  53.132  1.00  0.00    -0.188 NA
HETATM   11  C4  UNL     1      21.347  -0.883  54.082  1.00  0.00     0.173 A 
HETATM   12  C3  UNL     1      22.111   0.069  53.595  1.00  0.00     0.059 A 
HETATM   13  C2  UNL     1      22.930  -0.647  54.588  1.00  0.00     0.061 A 
HETATM   14  C20 UNL     1      22.890   0.937  53.208  1.00  0.00     0.027 A 
HETATM   15  C21 UNL     1      23.460   1.960  52.668  1.00  0.00     0.030 C 
HETATM   16  C22 UNL     1      24.931   2.391  52.748  1.00  0.00     0.184 C 
HETATM   17  O2  UNL     1      25.479   1.438  53.512  1.00  0.00    -0.320 OA
HETATM   18  C23 UNL     1      26.372   0.797  54.202  1.00  0.00     0.276 C 
HETATM   19  O3  UNL     1      27.442   1.407  54.264  1.00  0.00    -0.263 OA
HETATM   20  C24 UNL     1      25.854  -0.540  54.707  1.00  0.00     0.226 C 
HETATM   21  N3  UNL     1      24.390  -0.624  54.609  1.00  0.00    -0.401 N 
HETATM   22  H21 UNL     1      24.310  -1.381  53.790  1.00  0.00     0.154 HD
HETATM   23  C1  UNL     1      23.079  -1.744  55.649  1.00  0.00     0.041 C 
ENDBRANCH   1   8
BRANCH   4  24
HETATM   24  O1  UNL     1      21.587   5.042  48.419  1.00  0.00    -0.345 OA
BRANCH  24  25
HETATM   25  C10 UNL     1      21.916   6.353  48.829  1.00  0.00     0.214 C 
BRANCH  25  26
HETATM   26  C11 UNL     1      23.449   6.376  49.029  1.00  0.00    -0.034 A 
HETATM   27  C12 UNL     1      23.640   7.666  49.679  1.00  0.00     0.009 A 
HETATM   28  C13 UNL     1      24.869   8.116  50.097  1.00  0.00     0.001 A 
HETATM   29  C14 UNL     1      25.957   7.209  49.852  1.00  0.00     0.009 A 
HETATM   30  C15 UNL     1      25.760   6.021  49.247  1.00  0.00    -0.029 A 
HETATM   31  C17 UNL     1      24.551   5.626  48.844  1.00  0.00     0.019 A 
BRANCH  30  32
HETATM   32  C16 UNL     1      26.764   4.951  49.001  1.00  0.00     0.261 C 
HETATM   33  F1  UNL     1      26.236   3.703  48.992  1.00  0.00    -0.251 F 
ENDBRANCH  30  32
ENDBRANCH  25  26
ENDBRANCH  24  25
ENDBRANCH   4  24
TORSDOF 5
ENDMDL
