MODEL 1
REMARK VINA RESULT:      -8.3      0.000      0.000
REMARK  3 active torsions:
REMARK  status: ('A' for Active; 'I' for Inactive)
REMARK    1  A    between atoms: C2_2  and  C3_3 
REMARK       I    between atoms: C3_3  and  N1_5 
REMARK    2  A    between atoms: N1_5  and  C4_6 
REMARK    3  A    between atoms: C9_13  and  N4_14 
ROOT
HETATM    1  C4  UNL     1      24.349   1.946  51.590  1.00  0.00     0.036 A 
HETATM    2  C5  UNL     1      22.975   1.785  51.787  1.00  0.00     0.032 A 
HETATM    3  C6  UNL     1      22.480   0.900  52.744  1.00  0.00     0.035 A 
HETATM    4  C7  UNL     1      23.323   0.144  53.539  1.00  0.00     0.072 A 
HETATM    5  N2  UNL     1      22.939  -0.730  54.470  1.00  0.00    -0.241 NA
HETATM    6  C8  UNL     1      23.856  -1.431  55.193  1.00  0.00     0.236 A 
HETATM    7  N3  UNL     1      25.175  -1.240  54.966  1.00  0.00    -0.223 NA
HETATM    8  C9  UNL     1      25.602  -0.354  54.020  1.00  0.00     0.143 A 
HETATM    9  C15 UNL     1      24.649   0.320  53.326  1.00  0.00     0.041 A 
HETATM   10  C16 UNL     1      25.170   1.181  52.392  1.00  0.00     0.047 A 
ENDROOT
BRANCH   1  11
HETATM   11  N1  UNL     1      24.757   2.858  50.604  1.00  0.00    -0.324 N 
HETATM   12  C3  UNL     1      26.019   3.394  50.238  1.00  0.00     0.244 C 
HETATM   13  O1  UNL     1      27.159   3.193  50.709  1.00  0.00    -0.268 OA
HETATM   14  H4  UNL     1      23.902   3.142  50.094  1.00  0.00     0.169 HD
BRANCH  12  15
HETATM   15  C2  UNL     1      26.044   4.342  49.131  1.00  0.00     0.064 C 
HETATM   16  C1  UNL     1      27.318   4.626  48.856  1.00  0.00     0.017 C 
ENDBRANCH  12  15
ENDBRANCH   1  11
BRANCH   8  17
HETATM   17  N4  UNL     1      27.026  -0.312  53.995  1.00  0.00    -0.338 N 
HETATM   18  C10 UNL     1      27.506  -1.447  53.238  1.00  0.00     0.093 A 
HETATM   19  C11 UNL     1      28.796  -1.697  53.018  1.00  0.00     0.017 A 
HETATM   20  C12 UNL     1      29.815  -0.800  53.553  1.00  0.00    -0.001 A 
HETATM   21  C13 UNL     1      29.319   0.216  54.236  1.00  0.00    -0.007 A 
HETATM   22  C14 UNL     1      27.940   0.649  54.582  1.00  0.00     0.157 A 
ENDBRANCH   8  17
TORSDOF 3
ENDMDL
MODEL 2
REMARK VINA RESULT:      -8.2      1.315      1.607
REMARK  3 active torsions:
REMARK  status: ('A' for Active; 'I' for Inactive)
REMARK    1  A    between atoms: C2_2  and  C3_3 
REMARK       I    between atoms: C3_3  and  N1_5 
REMARK    2  A    between atoms: N1_5  and  C4_6 
REMARK    3  A    between atoms: C9_13  and  N4_14 
ROOT
HETATM    1  C4  UNL     1      25.408   2.886  50.550  1.00  0.00     0.036 A 
HETATM    2  C5  UNL     1      24.014   2.885  50.452  1.00  0.00     0.032 A 
HETATM    3  C6  UNL     1      23.235   2.019  51.217  1.00  0.00     0.035 A 
HETATM    4  C7  UNL     1      23.803   1.123  52.106  1.00  0.00     0.072 A 
HETATM    5  N2  UNL     1      23.139   0.256  52.869  1.00  0.00    -0.241 NA
HETATM    6  C8  UNL     1      23.802  -0.590  53.707  1.00  0.00     0.236 A 
HETATM    7  N3  UNL     1      25.152  -0.551  53.768  1.00  0.00    -0.223 NA
HETATM    8  C9  UNL     1      25.862   0.324  52.999  1.00  0.00     0.143 A 
HETATM    9  C15 UNL     1      25.156   1.146  52.180  1.00  0.00     0.041 A 
HETATM   10  C16 UNL     1      25.953   1.984  51.441  1.00  0.00     0.047 A 
ENDROOT
BRANCH   1  11
HETATM   11  N1  UNL     1      26.112   3.792  49.741  1.00  0.00    -0.324 N 
HETATM   12  C3  UNL     1      26.070   5.203  49.598  1.00  0.00     0.244 C 
HETATM   13  O1  UNL     1      25.369   6.061  50.175  1.00  0.00    -0.268 OA
HETATM   14  H4  UNL     1      26.768   3.229  49.171  1.00  0.00     0.169 HD
BRANCH  12  15
HETATM   15  C2  UNL     1      26.978   5.801  48.628  1.00  0.00     0.064 C 
HETATM   16  C1  UNL     1      28.038   5.000  48.503  1.00  0.00     0.017 C 
ENDBRANCH  12  15
ENDBRANCH   1  11
BRANCH   8  17
HETATM   17  N4  UNL     1      27.255   0.192  53.267  1.00  0.00    -0.338 N 
HETATM   18  C10 UNL     1      27.653  -1.168  52.974  1.00  0.00     0.093 A 
HETATM   19  C11 UNL     1      28.898  -1.619  53.111  1.00  0.00     0.017 A 
HETATM   20  C12 UNL     1      29.952  -0.726  53.580  1.00  0.00    -0.001 A 
HETATM   21  C13 UNL     1      29.531   0.500  53.834  1.00  0.00    -0.007 A 
HETATM   22  C14 UNL     1      28.209   1.174  53.745  1.00  0.00     0.157 A 
ENDBRANCH   8  17
TORSDOF 3
ENDMDL
MODEL 3
REMARK VINA RESULT:      -8.1      1.810      5.665
REMARK  3 active torsions:
REMARK  status: ('A' for Active; 'I' for Inactive)
REMARK    1  A    between atoms: C2_2  and  C3_3 
REMARK       I    between atoms: C3_3  and  N1_5 
REMARK    2  A    between atoms: N1_5  and  C4_6 
REMARK    3  A    between atoms: C9_13  and  N4_14 
ROOT
HETATM    1  C4  UNL     1      26.219   0.334  52.775  1.00  0.00     0.036 A 
HETATM    2  C5  UNL     1      25.158  -0.301  53.428  1.00  0.00     0.032 A 
HETATM    3  C6  UNL     1      23.844   0.140  53.271  1.00  0.00     0.035 A 
HETATM    4  C7  UNL     1      23.532   1.221  52.466  1.00  0.00     0.072 A 
HETATM    5  N2  UNL     1      22.310   1.714  52.265  1.00  0.00    -0.241 NA
HETATM    6  C8  UNL     1      22.115   2.793  51.455  1.00  0.00     0.236 A 
HETATM    7  N3  UNL     1      23.173   3.372  50.845  1.00  0.00    -0.223 NA
HETATM    8  C9  UNL     1      24.437   2.892  51.029  1.00  0.00     0.143 A 
HETATM    9  C15 UNL     1      24.580   1.816  51.846  1.00  0.00     0.041 A 
HETATM   10  C16 UNL     1      25.883   1.410  51.979  1.00  0.00     0.047 A 
ENDROOT
BRANCH   1  11
HETATM   11  N1  UNL     1      27.508  -0.177  52.992  1.00  0.00    -0.324 N 
HETATM   12  C3  UNL     1      28.500   0.071  53.975  1.00  0.00     0.244 C 
HETATM   13  O1  UNL     1      28.499   0.842  54.958  1.00  0.00    -0.268 OA
HETATM   14  H4  UNL     1      27.683  -0.862  52.236  1.00  0.00     0.169 HD
BRANCH  12  15
HETATM   15  C2  UNL     1      29.747  -0.674  53.866  1.00  0.00     0.064 C 
HETATM   16  C1  UNL     1      29.474  -1.863  53.326  1.00  0.00     0.017 C 
ENDBRANCH  12  15
ENDBRANCH   1  11
BRANCH   8  17
HETATM   17  N4  UNL     1      25.365   3.649  50.259  1.00  0.00    -0.338 N 
HETATM   18  C10 UNL     1      24.943   5.033  50.259  1.00  0.00     0.093 A 
HETATM   19  C11 UNL     1      25.602   6.007  49.634  1.00  0.00     0.017 A 
HETATM   20  C12 UNL     1      26.825   5.706  48.896  1.00  0.00    -0.001 A 
HETATM   21  C13 UNL     1      27.160   4.428  48.929  1.00  0.00    -0.007 A 
HETATM   22  C14 UNL     1      26.561   3.222  49.558  1.00  0.00     0.157 A 
ENDBRANCH   8  17
TORSDOF 3
ENDMDL
MODEL 4
REMARK VINA RESULT:      -8.0      1.833      5.379
REMARK  3 active torsions:
REMARK  status: ('A' for Active; 'I' for Inactive)
REMARK    1  A    between atoms: C2_2  and  C3_3 
REMARK       I    between atoms: C3_3  and  N1_5 
REMARK    2  A    between atoms: N1_5  and  C4_6 
REMARK    3  A    between atoms: C9_13  and  N4_14 
ROOT
HETATM    1  C4  UNL     1      25.148  -0.540  54.401  1.00  0.00     0.036 A 
HETATM    2  C5  UNL     1      24.474  -1.292  55.367  1.00  0.00     0.032 A 
HETATM    3  C6  UNL     1      23.082  -1.372  55.380  1.00  0.00     0.035 A 
HETATM    4  C7  UNL     1      22.307  -0.713  54.442  1.00  0.00     0.072 A 
HETATM    5  N2  UNL     1      20.975  -0.728  54.384  1.00  0.00    -0.241 NA
HETATM    6  C8  UNL     1      20.310  -0.034  53.419  1.00  0.00     0.236 A 
HETATM    7  N3  UNL     1      21.006   0.679  52.505  1.00  0.00    -0.223 NA
HETATM    8  C9  UNL     1      22.370   0.715  52.537  1.00  0.00     0.143 A 
HETATM    9  C15 UNL     1      22.987   0.008  53.518  1.00  0.00     0.041 A 
HETATM   10  C16 UNL     1      24.355   0.109  53.476  1.00  0.00     0.047 A 
ENDROOT
BRANCH   1  11
HETATM   11  N1  UNL     1      26.550  -0.516  54.464  1.00  0.00    -0.324 N 
HETATM   12  C3  UNL     1      27.507   0.532  54.438  1.00  0.00     0.244 C 
HETATM   13  O1  UNL     1      27.359   1.769  54.348  1.00  0.00    -0.268 OA
HETATM   14  H4  UNL     1      26.857  -1.501  54.544  1.00  0.00     0.169 HD
BRANCH  12  15
HETATM   15  C2  UNL     1      28.911   0.153  54.528  1.00  0.00     0.064 C 
HETATM   16  C1  UNL     1      29.151  -0.775  53.600  1.00  0.00     0.017 C 
ENDBRANCH  12  15
ENDBRANCH   1  11
BRANCH   8  17
HETATM   17  N4  UNL     1      22.864   1.503  51.458  1.00  0.00    -0.338 N 
HETATM   18  C10 UNL     1      22.038   1.261  50.295  1.00  0.00     0.093 A 
HETATM   19  C11 UNL     1      22.229   1.852  49.117  1.00  0.00     0.017 A 
HETATM   20  C12 UNL     1      23.320   2.804  48.945  1.00  0.00    -0.001 A 
HETATM   21  C13 UNL     1      24.041   2.984  50.038  1.00  0.00    -0.007 A 
HETATM   22  C14 UNL     1      23.983   2.424  51.413  1.00  0.00     0.157 A 
ENDBRANCH   8  17
TORSDOF 3
ENDMDL
MODEL 5
REMARK VINA RESULT:      -7.7      1.933      5.623
REMARK  3 active torsions:
REMARK  status: ('A' for Active; 'I' for Inactive)
REMARK    1  A    between atoms: C2_2  and  C3_3 
REMARK       I    between atoms: C3_3  and  N1_5 
REMARK    2  A    between atoms: N1_5  and  C4_6 
REMARK    3  A    between atoms: C9_13  and  N4_14 
ROOT
HETATM    1  C4  UNL     1      26.389   1.571  51.946  1.00  0.00     0.036 A 
HETATM    2  C5  UNL     1      26.647   2.573  51.006  1.00  0.00     0.032 A 
HETATM    3  C6  UNL     1      25.615   3.169  50.282  1.00  0.00     0.035 A 
HETATM    4  C7  UNL     1      24.294   2.797  50.460  1.00  0.00     0.072 A 
HETATM    5  N2  UNL     1      23.248   3.305  49.808  1.00  0.00    -0.241 NA
HETATM    6  C8  UNL     1      21.985   2.859  50.056  1.00  0.00     0.236 A 
HETATM    7  N3  UNL     1      21.786   1.888  50.976  1.00  0.00    -0.223 NA
HETATM    8  C9  UNL     1      22.834   1.346  51.660  1.00  0.00     0.143 A 
HETATM    9  C15 UNL     1      24.074   1.824  51.377  1.00  0.00     0.041 A 
HETATM   10  C16 UNL     1      25.066   1.216  52.106  1.00  0.00     0.047 A 
ENDROOT
BRANCH   1  11
HETATM   11  N1  UNL     1      27.489   1.027  52.628  1.00  0.00    -0.324 N 
HETATM   12  C3  UNL     1      28.403   1.556  53.576  1.00  0.00     0.244 C 
HETATM   13  O1  UNL     1      28.484   2.695  54.084  1.00  0.00    -0.268 OA
HETATM   14  H4  UNL     1      27.574   0.045  52.314  1.00  0.00     0.169 HD
BRANCH  12  15
HETATM   15  C2  UNL     1      29.441   0.662  54.071  1.00  0.00     0.064 C 
HETATM   16  C1  UNL     1      29.268  -0.532  53.499  1.00  0.00     0.017 C 
ENDBRANCH  12  15
ENDBRANCH   1  11
BRANCH   8  17
HETATM   17  N4  UNL     1      22.364   0.373  52.588  1.00  0.00    -0.338 N 
HETATM   18  C10 UNL     1      21.309   0.965  53.381  1.00  0.00     0.093 A 
HETATM   19  C11 UNL     1      20.649   0.314  54.338  1.00  0.00     0.017 A 
HETATM   20  C12 UNL     1      20.977  -1.076  54.635  1.00  0.00    -0.001 A 
HETATM   21  C13 UNL     1      21.947  -1.563  53.882  1.00  0.00    -0.007 A 
HETATM   22  C14 UNL     1      22.785  -1.000  52.791  1.00  0.00     0.157 A 
ENDBRANCH   8  17
TORSDOF 3
ENDMDL
MODEL 6
REMARK VINA RESULT:      -7.7      2.207      2.632
REMARK  3 active torsions:
REMARK  status: ('A' for Active; 'I' for Inactive)
REMARK    1  A    between atoms: C2_2  and  C3_3 
REMARK       I    between atoms: C3_3  and  N1_5 
REMARK    2  A    between atoms: N1_5  and  C4_6 
REMARK    3  A    between atoms: C9_13  and  N4_14 
ROOT
HETATM    1  C4  UNL     1      22.689   1.229  51.619  1.00  0.00     0.036 A 
HETATM    2  C5  UNL     1      21.384   1.109  52.107  1.00  0.00     0.032 A 
HETATM    3  C6  UNL     1      21.109   0.391  53.270  1.00  0.00     0.035 A 
HETATM    4  C7  UNL     1      22.111  -0.233  53.992  1.00  0.00     0.072 A 
HETATM    5  N2  UNL     1      21.940  -0.944  55.107  1.00  0.00    -0.241 NA
HETATM    6  C8  UNL     1      23.000  -1.525  55.736  1.00  0.00     0.236 A 
HETATM    7  N3  UNL     1      24.243  -1.379  55.226  1.00  0.00    -0.223 NA
HETATM    8  C9  UNL     1      24.453  -0.658  54.088  1.00  0.00     0.143 A 
HETATM    9  C15 UNL     1      23.365  -0.099  53.497  1.00  0.00     0.041 A 
HETATM   10  C16 UNL     1      23.671   0.599  52.355  1.00  0.00     0.047 A 
ENDROOT
BRANCH   1  11
HETATM   11  N1  UNL     1      22.872   1.971  50.441  1.00  0.00    -0.324 N 
HETATM   12  C3  UNL     1      22.359   1.846  49.124  1.00  0.00     0.244 C 
HETATM   13  O1  UNL     1      21.572   1.010  48.631  1.00  0.00    -0.268 OA
HETATM   14  H4  UNL     1      23.525   2.739  50.676  1.00  0.00     0.169 HD
BRANCH  12  15
HETATM   15  C2  UNL     1      22.791   2.834  48.145  1.00  0.00     0.064 C 
HETATM   16  C1  UNL     1      23.115   3.952  48.798  1.00  0.00     0.017 C 
ENDBRANCH  12  15
ENDBRANCH   1  11
BRANCH   8  17
HETATM   17  N4  UNL     1      25.843  -0.627  53.777  1.00  0.00    -0.338 N 
HETATM   18  C10 UNL     1      26.509   0.232  54.731  1.00  0.00     0.093 A 
HETATM   19  C11 UNL     1      27.820   0.469  54.723  1.00  0.00     0.017 A 
HETATM   20  C12 UNL     1      28.669  -0.154  53.713  1.00  0.00    -0.001 A 
HETATM   21  C13 UNL     1      28.007  -0.925  52.868  1.00  0.00    -0.007 A 
HETATM   22  C14 UNL     1      26.577  -1.299  52.721  1.00  0.00     0.157 A 
ENDBRANCH   8  17
TORSDOF 3
ENDMDL
MODEL 7
REMARK VINA RESULT:      -7.5      1.636      4.600
REMARK  3 active torsions:
REMARK  status: ('A' for Active; 'I' for Inactive)
REMARK    1  A    between atoms: C2_2  and  C3_3 
REMARK       I    between atoms: C3_3  and  N1_5 
REMARK    2  A    between atoms: N1_5  and  C4_6 
REMARK    3  A    between atoms: C9_13  and  N4_14 
ROOT
HETATM    1  C4  UNL     1      26.306   2.440  52.063  1.00  0.00     0.036 A 
HETATM    2  C5  UNL     1      27.392   2.108  52.879  1.00  0.00     0.032 A 
HETATM    3  C6  UNL     1      27.289   1.118  53.854  1.00  0.00     0.035 A 
HETATM    4  C7  UNL     1      26.112   0.420  54.060  1.00  0.00     0.072 A 
HETATM    5  N2  UNL     1      25.921  -0.534  54.971  1.00  0.00    -0.241 NA
HETATM    6  C8  UNL     1      24.713  -1.153  55.093  1.00  0.00     0.236 A 
HETATM    7  N3  UNL     1      23.693  -0.798  54.280  1.00  0.00    -0.223 NA
HETATM    8  C9  UNL     1      23.855   0.174  53.337  1.00  0.00     0.143 A 
HETATM    9  C15 UNL     1      25.076   0.762  53.254  1.00  0.00     0.041 A 
HETATM   10  C16 UNL     1      25.144   1.732  52.286  1.00  0.00     0.047 A 
ENDROOT
BRANCH   1  11
HETATM   11  N1  UNL     1      26.501   3.450  51.108  1.00  0.00    -0.324 N 
HETATM   12  C3  UNL     1      25.867   3.759  49.877  1.00  0.00     0.244 C 
HETATM   13  O1  UNL     1      24.924   3.197  49.281  1.00  0.00    -0.268 OA
HETATM   14  H4  UNL     1      27.281   4.036  51.455  1.00  0.00     0.169 HD
BRANCH  12  15
HETATM   15  C2  UNL     1      26.362   4.918  49.146  1.00  0.00     0.064 C 
HETATM   16  C1  UNL     1      27.601   4.650  48.730  1.00  0.00     0.017 C 
ENDBRANCH  12  15
ENDBRANCH   1  11
BRANCH   8  17
HETATM   17  N4  UNL     1      22.652   0.340  52.593  1.00  0.00    -0.338 N 
HETATM   18  C10 UNL     1      21.547  -0.147  53.390  1.00  0.00     0.093 A 
HETATM   19  C11 UNL     1      20.278  -0.127  52.986  1.00  0.00     0.017 A 
HETATM   20  C12 UNL     1      19.938   0.408  51.672  1.00  0.00    -0.001 A 
HETATM   21  C13 UNL     1      20.986   0.836  50.988  1.00  0.00    -0.007 A 
HETATM   22  C14 UNL     1      22.444   0.891  51.268  1.00  0.00     0.157 A 
ENDBRANCH   8  17
TORSDOF 3
ENDMDL
MODEL 8
REMARK VINA RESULT:      -7.4      2.575      5.612
REMARK  3 active torsions:
REMARK  status: ('A' for Active; 'I' for Inactive)
REMARK    1  A    between atoms: C2_2  and  C3_3 
REMARK       I    between atoms: C3_3  and  N1_5 
REMARK    2  A    between atoms: N1_5  and  C4_6 
REMARK    3  A    between atoms: C9_13  and  N4_14 
ROOT
HETATM    1  C4  UNL     1      21.754  -0.500  53.587  1.00  0.00     0.036 A 
HETATM    2  C5  UNL     1      22.061  -1.298  54.693  1.00  0.00     0.032 A 
HETATM    3  C6  UNL     1      23.366  -1.392  55.177  1.00  0.00     0.035 A 
HETATM    4  C7  UNL     1      24.411  -0.703  54.588  1.00  0.00     0.072 A 
HETATM    5  N2  UNL     1      25.685  -0.740  54.977  1.00  0.00    -0.241 NA
HETATM    6  C8  UNL     1      26.640  -0.026  54.318  1.00  0.00     0.236 A 
HETATM    7  N3  UNL     1      26.293   0.733  53.254  1.00  0.00    -0.223 NA
HETATM    8  C9  UNL     1      24.998   0.793  52.829  1.00  0.00     0.143 A 
HETATM    9  C15 UNL     1      24.083   0.063  53.519  1.00  0.00     0.041 A 
HETATM   10  C16 UNL     1      22.812   0.177  53.016  1.00  0.00     0.047 A 
ENDROOT
BRANCH   1  11
HETATM   11  N1  UNL     1      20.414  -0.465  53.169  1.00  0.00    -0.324 N 
HETATM   12  C3  UNL     1      19.774   0.013  51.996  1.00  0.00     0.244 C 
HETATM   13  O1  UNL     1      20.244   0.556  50.974  1.00  0.00    -0.268 OA
HETATM   14  H4  UNL     1      19.858  -0.894  53.929  1.00  0.00     0.169 HD
BRANCH  12  15
HETATM   15  C2  UNL     1      18.326  -0.129  51.924  1.00  0.00     0.064 C 
HETATM   16  C1  UNL     1      17.951  -1.031  52.834  1.00  0.00     0.017 C 
ENDBRANCH  12  15
ENDBRANCH   1  11
BRANCH   8  17
HETATM   17  N4  UNL     1      24.887   1.679  51.719  1.00  0.00    -0.338 N 
HETATM   18  C10 UNL     1      26.213   2.123  51.351  1.00  0.00     0.093 A 
HETATM   19  C11 UNL     1      26.460   2.957  50.342  1.00  0.00     0.017 A 
HETATM   20  C12 UNL     1      25.359   3.473  49.535  1.00  0.00    -0.001 A 
HETATM   21  C13 UNL     1      24.173   3.036  49.918  1.00  0.00    -0.007 A 
HETATM   22  C14 UNL     1      23.711   2.125  50.998  1.00  0.00     0.157 A 
ENDBRANCH   8  17
TORSDOF 3
ENDMDL
MODEL 9
REMARK VINA RESULT:      -7.2      2.106      5.210
REMARK  3 active torsions:
REMARK  status: ('A' for Active; 'I' for Inactive)
REMARK    1  A    between atoms: C2_2  and  C3_3 
REMARK       I    between atoms: C3_3  and  N1_5 
REMARK    2  A    between atoms: N1_5  and  C4_6 
REMARK    3  A    between atoms: C9_13  and  N4_14 
ROOT
HETATM    1  C4  UNL     1      26.080   2.766  51.144  1.00  0.00     0.036 A 
HETATM    2  C5  UNL     1      26.980   2.002  51.892  1.00  0.00     0.032 A 
HETATM    3  C6  UNL     1      26.547   0.926  52.666  1.00  0.00     0.035 A 
HETATM    4  C7  UNL     1      25.213   0.566  52.730  1.00  0.00     0.072 A 
HETATM    5  N2  UNL     1      24.710  -0.439  53.447  1.00  0.00    -0.241 NA
HETATM    6  C8  UNL     1      23.373  -0.701  53.443  1.00  0.00     0.236 A 
HETATM    7  N3  UNL     1      22.542   0.066  52.702  1.00  0.00    -0.223 NA
HETATM    8  C9  UNL     1      23.024   1.102  51.957  1.00  0.00     0.143 A 
HETATM    9  C15 UNL     1      24.363   1.324  51.994  1.00  0.00     0.041 A 
HETATM   10  C16 UNL     1      24.755   2.389  51.223  1.00  0.00     0.047 A 
ENDROOT
BRANCH   1  11
HETATM   11  N1  UNL     1      26.604   3.830  50.394  1.00  0.00    -0.324 N 
HETATM   12  C3  UNL     1      26.045   4.709  49.430  1.00  0.00     0.244 C 
HETATM   13  O1  UNL     1      24.887   4.781  48.966  1.00  0.00    -0.268 OA
HETATM   14  H4  UNL     1      27.600   3.917  50.664  1.00  0.00     0.169 HD
BRANCH  12  15
HETATM   15  C2  UNL     1      26.928   5.715  48.856  1.00  0.00     0.064 C 
HETATM   16  C1  UNL     1      28.058   5.112  48.481  1.00  0.00     0.017 C 
ENDBRANCH  12  15
ENDBRANCH   1  11
BRANCH   8  17
HETATM   17  N4  UNL     1      21.961   1.731  51.248  1.00  0.00    -0.338 N 
HETATM   18  C10 UNL     1      21.684   0.960  50.055  1.00  0.00     0.093 A 
HETATM   19  C11 UNL     1      20.736   1.275  49.175  1.00  0.00     0.017 A 
HETATM   20  C12 UNL     1      19.906   2.457  49.386  1.00  0.00    -0.001 A 
HETATM   21  C13 UNL     1      20.204   3.122  50.488  1.00  0.00    -0.007 A 
HETATM   22  C14 UNL     1      21.208   2.929  51.567  1.00  0.00     0.157 A 
ENDBRANCH   8  17
TORSDOF 3
ENDMDL
