MODEL 1
REMARK VINA RESULT:      -9.2      0.000      0.000
REMARK  5 active torsions:
REMARK  status: ('A' for Active; 'I' for Inactive)
REMARK       I    between atoms: C2_2  and  N1_4 
REMARK    1  A    between atoms: C7_10  and  N3_11 
REMARK    2  A    between atoms: C10_14  and  C11_15 
REMARK    3  A    between atoms: C15_19  and  O2_20 
REMARK    4  A    between atoms: O2_20  and  C16_21 
REMARK    5  A    between atoms: C16_21  and  C17_22 
ROOT
HETATM    1  N3  UNL     1      26.513   3.370  49.795  1.00  0.00    -0.267 NA
HETATM    2  C8  UNL     1      26.995   3.989  49.207  1.00  0.00     0.016 A 
HETATM    3  C9  UNL     1      27.433   4.559  48.689  1.00  0.00    -0.021 A 
HETATM    4  C10 UNL     1      27.941   5.225  48.111  1.00  0.00     0.058 A 
HETATM    5  C22 UNL     1      27.427   4.673  49.554  1.00  0.00     0.134 A 
ENDROOT
BRANCH   4   6
HETATM    6  C11 UNL     1      28.697   6.409  48.416  1.00  0.00     0.000 A 
HETATM    7  C12 UNL     1      27.958   7.558  48.584  1.00  0.00     0.012 A 
HETATM    8  C13 UNL     1      28.572   8.744  48.884  1.00  0.00     0.003 A 
HETATM    9  C14 UNL     1      29.940   8.718  49.001  1.00  0.00     0.040 A 
HETATM   10  C15 UNL     1      30.776   7.646  48.855  1.00  0.00     0.107 A 
HETATM   11  C21 UNL     1      30.086   6.451  48.547  1.00  0.00     0.157 A 
HETATM   12  F1  UNL     1      30.631   5.209  48.341  1.00  0.00    -0.203 F 
BRANCH  10  13
HETATM   13  O2  UNL     1      32.083   7.364  48.915  1.00  0.00    -0.345 OA
BRANCH  13  14
HETATM   14  C16 UNL     1      33.171   7.899  48.314  1.00  0.00     0.207 C 
BRANCH  14  15
HETATM   15  C17 UNL     1      34.131   7.016  47.591  1.00  0.00     0.145 C 
HETATM   16  C18 UNL     1      35.367   6.872  48.460  1.00  0.00     0.036 C 
HETATM   17  C19 UNL     1      35.196   5.503  49.042  1.00  0.00     0.029 C 
HETATM   18  C20 UNL     1      34.344   4.794  47.982  1.00  0.00     0.168 C 
HETATM   19  O3  UNL     1      33.741   5.773  47.253  1.00  0.00    -0.384 OA
ENDBRANCH  14  15
ENDBRANCH  13  14
ENDBRANCH  10  13
ENDBRANCH   4   6
BRANCH   1  20
HETATM   20  C7  UNL     1      26.215   3.270  51.182  1.00  0.00     0.067 C 
HETATM   21  C6  UNL     1      24.707   3.092  51.286  1.00  0.00     0.050 C 
HETATM   22  C5  UNL     1      24.321   1.668  51.456  1.00  0.00     0.274 C 
HETATM   23  N2  UNL     1      24.365   1.229  52.836  1.00  0.00     0.092 N 
HETATM   24  C4  UNL     1      24.719  -0.173  52.856  1.00  0.00     0.292 C 
HETATM   25  C25 UNL     1      25.285   1.953  53.655  1.00  0.00     0.297 C 
HETATM   26  C3  UNL     1      25.909  -0.498  53.697  1.00  0.00     0.156 C 
HETATM   27  N1  UNL     1      27.034   0.379  53.482  1.00  0.00    -0.344 N 
HETATM   28  C2  UNL     1      28.290  -0.221  53.600  1.00  0.00     0.216 C 
HETATM   29  C24 UNL     1      26.696   1.781  53.170  1.00  0.00     0.117 C 
HETATM   30  C1  UNL     1      29.684   0.220  53.485  1.00  0.00     0.117 C 
HETATM   31  O1  UNL     1      28.158  -1.458  53.880  1.00  0.00    -0.274 OA
HETATM   32  C23 UNL     1      26.949   2.112  51.755  1.00  0.00     0.047 C 
ENDBRANCH   1  20
TORSDOF 5
ENDMDL
MODEL 2
REMARK VINA RESULT:      -8.9      5.428      9.455
REMARK  5 active torsions:
REMARK  status: ('A' for Active; 'I' for Inactive)
REMARK       I    between atoms: C2_2  and  N1_4 
REMARK    1  A    between atoms: C7_10  and  N3_11 
REMARK    2  A    between atoms: C10_14  and  C11_15 
REMARK    3  A    between atoms: C15_19  and  O2_20 
REMARK    4  A    between atoms: O2_20  and  C16_21 
REMARK    5  A    between atoms: C16_21  and  C17_22 
ROOT
HETATM    1  N3  UNL     1      22.584   3.176  50.668  1.00  0.00    -0.267 NA
HETATM    2  C8  UNL     1      22.452   2.264  51.001  1.00  0.00     0.016 A 
HETATM    3  C9  UNL     1      22.342   1.443  51.315  1.00  0.00    -0.021 A 
HETATM    4  C10 UNL     1      22.227   0.504  51.692  1.00  0.00     0.058 A 
HETATM    5  C22 UNL     1      22.735   2.048  51.805  1.00  0.00     0.134 A 
ENDROOT
BRANCH   4   6
HETATM    6  C11 UNL     1      22.605  -0.102  52.939  1.00  0.00     0.000 A 
HETATM    7  C12 UNL     1      21.563  -0.521  53.735  1.00  0.00     0.012 A 
HETATM    8  C13 UNL     1      21.806  -1.118  54.943  1.00  0.00     0.003 A 
HETATM    9  C14 UNL     1      23.121  -1.267  55.305  1.00  0.00     0.040 A 
HETATM   10  C15 UNL     1      24.234  -0.891  54.604  1.00  0.00     0.107 A 
HETATM   11  C21 UNL     1      23.922  -0.282  53.367  1.00  0.00     0.157 A 
HETATM   12  F1  UNL     1      24.805   0.203  52.435  1.00  0.00    -0.203 F 
BRANCH  10  13
HETATM   13  O2  UNL     1      25.566  -0.921  54.725  1.00  0.00    -0.345 OA
BRANCH  13  14
HETATM   14  C16 UNL     1      26.490   0.031  54.989  1.00  0.00     0.207 C 
BRANCH  14  15
HETATM   15  C17 UNL     1      27.786   0.036  54.251  1.00  0.00     0.145 C 
HETATM   16  C18 UNL     1      27.655   1.015  53.099  1.00  0.00     0.036 C 
HETATM   17  C19 UNL     1      28.415   2.205  53.595  1.00  0.00     0.029 C 
HETATM   18  C20 UNL     1      29.418   1.576  54.572  1.00  0.00     0.168 C 
HETATM   19  O3  UNL     1      28.911   0.361  54.916  1.00  0.00    -0.384 OA
ENDBRANCH  14  15
ENDBRANCH  13  14
ENDBRANCH  10  13
ENDBRANCH   4   6
BRANCH   1  20
HETATM   20  C7  UNL     1      23.222   4.366  51.115  1.00  0.00     0.067 C 
HETATM   21  C6  UNL     1      24.684   4.248  50.712  1.00  0.00     0.050 C 
HETATM   22  C5  UNL     1      24.979   4.979  49.452  1.00  0.00     0.274 C 
HETATM   23  N2  UNL     1      25.257   6.385  49.664  1.00  0.00     0.092 N 
HETATM   24  C4  UNL     1      24.802   7.118  48.504  1.00  0.00     0.292 C 
HETATM   25  C25 UNL     1      24.646   6.937  50.832  1.00  0.00     0.297 C 
HETATM   26  C3  UNL     1      23.848   8.225  48.807  1.00  0.00     0.156 C 
HETATM   27  N1  UNL     1      22.785   7.850  49.707  1.00  0.00    -0.344 N 
HETATM   28  C2  UNL     1      21.556   8.472  49.471  1.00  0.00     0.216 C 
HETATM   29  C24 UNL     1      23.148   6.868  50.745  1.00  0.00     0.117 C 
HETATM   30  C1  UNL     1      20.222   8.437  50.080  1.00  0.00     0.117 C 
HETATM   31  O1  UNL     1      21.650   9.261  48.473  1.00  0.00    -0.274 OA
HETATM   32  C23 UNL     1      22.566   5.538  50.481  1.00  0.00     0.047 C 
ENDBRANCH   1  20
TORSDOF 5
ENDMDL
MODEL 3
REMARK VINA RESULT:      -8.9      2.450      3.445
REMARK  5 active torsions:
REMARK  status: ('A' for Active; 'I' for Inactive)
REMARK       I    between atoms: C2_2  and  N1_4 
REMARK    1  A    between atoms: C7_10  and  N3_11 
REMARK    2  A    between atoms: C10_14  and  C11_15 
REMARK    3  A    between atoms: C15_19  and  O2_20 
REMARK    4  A    between atoms: O2_20  and  C16_21 
REMARK    5  A    between atoms: C16_21  and  C17_22 
ROOT
HETATM    1  N3  UNL     1      25.292   5.993  49.045  1.00  0.00    -0.267 NA
HETATM    2  C8  UNL     1      26.124   6.246  48.593  1.00  0.00     0.016 A 
HETATM    3  C9  UNL     1      26.883   6.479  48.199  1.00  0.00    -0.021 A 
HETATM    4  C10 UNL     1      27.763   6.750  47.765  1.00  0.00     0.058 A 
HETATM    5  C22 UNL     1      26.841   6.431  49.069  1.00  0.00     0.134 A 
ENDROOT
BRANCH   4   6
HETATM    6  C11 UNL     1      29.047   7.112  48.299  1.00  0.00     0.000 A 
HETATM    7  C12 UNL     1      29.169   8.419  48.715  1.00  0.00     0.012 A 
HETATM    8  C13 UNL     1      30.345   8.874  49.246  1.00  0.00     0.003 A 
HETATM    9  C14 UNL     1      31.373   7.968  49.336  1.00  0.00     0.040 A 
HETATM   10  C15 UNL     1      31.371   6.654  48.958  1.00  0.00     0.107 A 
HETATM   11  C21 UNL     1      30.132   6.242  48.417  1.00  0.00     0.157 A 
HETATM   12  F1  UNL     1      29.806   4.993  47.949  1.00  0.00    -0.203 F 
BRANCH  10  13
HETATM   13  O2  UNL     1      32.200   5.603  48.940  1.00  0.00    -0.345 OA
BRANCH  13  14
HETATM   14  C16 UNL     1      33.430   5.408  48.413  1.00  0.00     0.207 C 
BRANCH  14  15
HETATM   15  C17 UNL     1      33.589   4.587  47.179  1.00  0.00     0.145 C 
HETATM   16  C18 UNL     1      34.213   3.264  47.583  1.00  0.00     0.036 C 
HETATM   17  C19 UNL     1      33.043   2.329  47.548  1.00  0.00     0.029 C 
HETATM   18  C20 UNL     1      32.117   2.994  46.522  1.00  0.00     0.168 C 
HETATM   19  O3  UNL     1      32.497   4.299  46.446  1.00  0.00    -0.384 OA
ENDBRANCH  14  15
ENDBRANCH  13  14
ENDBRANCH  10  13
ENDBRANCH   4   6
BRANCH   1  20
HETATM   20  C7  UNL     1      24.825   5.887  50.385  1.00  0.00     0.067 C 
HETATM   21  C6  UNL     1      23.550   6.712  50.462  1.00  0.00     0.050 C 
HETATM   22  C5  UNL     1      22.330   5.873  50.339  1.00  0.00     0.274 C 
HETATM   23  N2  UNL     1      21.910   5.294  51.600  1.00  0.00     0.092 N 
HETATM   24  C4  UNL     1      21.289   4.017  51.329  1.00  0.00     0.292 C 
HETATM   25  C25 UNL     1      22.968   5.108  52.543  1.00  0.00     0.297 C 
HETATM   26  C3  UNL     1      21.884   2.870  52.076  1.00  0.00     0.156 C 
HETATM   27  N1  UNL     1      23.326   2.831  52.036  1.00  0.00    -0.344 N 
HETATM   28  C2  UNL     1      23.889   1.552  52.019  1.00  0.00     0.216 C 
HETATM   29  C24 UNL     1      23.996   4.144  52.021  1.00  0.00     0.117 C 
HETATM   30  C1  UNL     1      25.246   0.998  51.985  1.00  0.00     0.117 C 
HETATM   31  O1  UNL     1      22.968   0.670  52.040  1.00  0.00    -0.274 OA
HETATM   32  C23 UNL     1      24.579   4.457  50.702  1.00  0.00     0.047 C 
ENDBRANCH   1  20
TORSDOF 5
ENDMDL
MODEL 4
REMARK VINA RESULT:      -8.7      4.325      9.759
REMARK  5 active torsions:
REMARK  status: ('A' for Active; 'I' for Inactive)
REMARK       I    between atoms: C2_2  and  N1_4 
REMARK    1  A    between atoms: C7_10  and  N3_11 
REMARK    2  A    between atoms: C10_14  and  C11_15 
REMARK    3  A    between atoms: C15_19  and  O2_20 
REMARK    4  A    between atoms: O2_20  and  C16_21 
REMARK    5  A    between atoms: C16_21  and  C17_22 
ROOT
HETATM    1  N3  UNL     1      27.336   6.500  48.397  1.00  0.00    -0.267 NA
HETATM    2  C8  UNL     1      27.182   5.575  48.683  1.00  0.00     0.016 A 
HETATM    3  C9  UNL     1      27.030   4.744  48.949  1.00  0.00    -0.021 A 
HETATM    4  C10 UNL     1      26.836   3.796  49.264  1.00  0.00     0.058 A 
HETATM    5  C22 UNL     1      26.423   5.359  49.071  1.00  0.00     0.134 A 
ENDROOT
BRANCH   4   6
HETATM    6  C11 UNL     1      25.712   3.195  49.926  1.00  0.00     0.000 A 
HETATM    7  C12 UNL     1      24.507   3.307  49.271  1.00  0.00     0.012 A 
HETATM    8  C13 UNL     1      23.369   2.767  49.806  1.00  0.00     0.003 A 
HETATM    9  C14 UNL     1      23.500   2.123  51.011  1.00  0.00     0.040 A 
HETATM   10  C15 UNL     1      24.635   1.949  51.753  1.00  0.00     0.107 A 
HETATM   11  C21 UNL     1      25.776   2.527  51.151  1.00  0.00     0.157 A 
HETATM   12  F1  UNL     1      27.060   2.527  51.637  1.00  0.00    -0.203 F 
BRANCH  10  13
HETATM   13  O2  UNL     1      25.017   1.386  52.906  1.00  0.00    -0.345 OA
BRANCH  13  14
HETATM   14  C16 UNL     1      24.688   0.225  53.518  1.00  0.00     0.207 C 
BRANCH  14  15
HETATM   15  C17 UNL     1      25.760  -0.667  54.046  1.00  0.00     0.145 C 
HETATM   16  C18 UNL     1      26.624  -1.093  52.873  1.00  0.00     0.036 C 
HETATM   17  C19 UNL     1      27.840  -0.235  53.037  1.00  0.00     0.029 C 
HETATM   18  C20 UNL     1      27.856   0.035  54.547  1.00  0.00     0.168 C 
HETATM   19  O3  UNL     1      26.591  -0.193  54.994  1.00  0.00    -0.384 OA
ENDBRANCH  14  15
ENDBRANCH  13  14
ENDBRANCH  10  13
ENDBRANCH   4   6
BRANCH   1  20
HETATM   20  C7  UNL     1      26.655   7.746  48.489  1.00  0.00     0.067 C 
HETATM   21  C6  UNL     1      27.239   8.467  49.695  1.00  0.00     0.050 C 
HETATM   22  C5  UNL     1      28.275   9.458  49.308  1.00  0.00     0.274 C 
HETATM   23  N2  UNL     1      27.720  10.744  48.937  1.00  0.00     0.092 N 
HETATM   24  C4  UNL     1      28.575  11.337  47.934  1.00  0.00     0.292 C 
HETATM   25  C25 UNL     1      26.383  10.685  48.434  1.00  0.00     0.297 C 
HETATM   26  C3  UNL     1      27.874  11.725  46.675  1.00  0.00     0.156 C 
HETATM   27  N1  UNL     1      26.996  10.705  46.156  1.00  0.00    -0.344 N 
HETATM   28  C2  UNL     1      26.912  10.642  44.763  1.00  0.00     0.216 C 
HETATM   29  C24 UNL     1      26.315   9.877  47.169  1.00  0.00     0.117 C 
HETATM   30  C1  UNL     1      26.188   9.821  43.786  1.00  0.00     0.117 C 
HETATM   31  O1  UNL     1      27.660  11.533  44.239  1.00  0.00    -0.274 OA
HETATM   32  C23 UNL     1      26.865   8.510  47.233  1.00  0.00     0.047 C 
ENDBRANCH   1  20
TORSDOF 5
ENDMDL
MODEL 5
REMARK VINA RESULT:      -8.7      4.472      9.292
REMARK  5 active torsions:
REMARK  status: ('A' for Active; 'I' for Inactive)
REMARK       I    between atoms: C2_2  and  N1_4 
REMARK    1  A    between atoms: C7_10  and  N3_11 
REMARK    2  A    between atoms: C10_14  and  C11_15 
REMARK    3  A    between atoms: C15_19  and  O2_20 
REMARK    4  A    between atoms: O2_20  and  C16_21 
REMARK    5  A    between atoms: C16_21  and  C17_22 
ROOT
HETATM    1  N3  UNL     1      27.090   6.086  48.553  1.00  0.00    -0.267 NA
HETATM    2  C8  UNL     1      26.946   5.160  48.843  1.00  0.00     0.016 A 
HETATM    3  C9  UNL     1      26.806   4.329  49.116  1.00  0.00    -0.021 A 
HETATM    4  C10 UNL     1      26.631   3.382  49.445  1.00  0.00     0.058 A 
HETATM    5  C22 UNL     1      26.334   4.983  49.449  1.00  0.00     0.134 A 
ENDROOT
BRANCH   4   6
HETATM    6  C11 UNL     1      25.724   2.835  50.417  1.00  0.00     0.000 A 
HETATM    7  C12 UNL     1      24.389   2.912  50.093  1.00  0.00     0.012 A 
HETATM    8  C13 UNL     1      23.436   2.418  50.941  1.00  0.00     0.003 A 
HETATM    9  C14 UNL     1      23.883   1.854  52.110  1.00  0.00     0.040 A 
HETATM   10  C15 UNL     1      25.175   1.722  52.539  1.00  0.00     0.107 A 
HETATM   11  C21 UNL     1      26.113   2.250  51.624  1.00  0.00     0.157 A 
HETATM   12  F1  UNL     1      27.479   2.273  51.756  1.00  0.00    -0.203 F 
BRANCH  10  13
HETATM   13  O2  UNL     1      25.850   1.234  53.587  1.00  0.00    -0.345 OA
BRANCH  13  14
HETATM   14  C16 UNL     1      26.454   0.047  53.823  1.00  0.00     0.207 C 
BRANCH  14  15
HETATM   15  C17 UNL     1      27.686  -0.007  54.662  1.00  0.00     0.145 C 
HETATM   16  C18 UNL     1      28.738  -0.777  53.885  1.00  0.00     0.036 C 
HETATM   17  C19 UNL     1      29.634   0.313  53.384  1.00  0.00     0.029 C 
HETATM   18  C20 UNL     1      29.435   1.416  54.432  1.00  0.00     0.168 C 
HETATM   19  O3  UNL     1      28.254   1.148  55.055  1.00  0.00    -0.384 OA
ENDBRANCH  14  15
ENDBRANCH  13  14
ENDBRANCH  10  13
ENDBRANCH   4   6
BRANCH   1  20
HETATM   20  C7  UNL     1      26.601   7.375  48.904  1.00  0.00     0.067 C 
HETATM   21  C6  UNL     1      27.821   8.225  49.223  1.00  0.00     0.050 C 
HETATM   22  C5  UNL     1      28.229   9.075  48.075  1.00  0.00     0.274 C 
HETATM   23  N2  UNL     1      27.501  10.326  48.008  1.00  0.00     0.092 N 
HETATM   24  C4  UNL     1      27.371  10.703  46.619  1.00  0.00     0.292 C 
HETATM   25  C25 UNL     1      26.203  10.284  48.603  1.00  0.00     0.297 C 
HETATM   26  C3  UNL     1      25.967  10.946  46.173  1.00  0.00     0.156 C 
HETATM   27  N1  UNL     1      25.038   9.922  46.584  1.00  0.00    -0.344 N 
HETATM   28  C2  UNL     1      24.003   9.658  45.682  1.00  0.00     0.216 C 
HETATM   29  C24 UNL     1      25.312   9.304  47.894  1.00  0.00     0.117 C 
HETATM   30  C1  UNL     1      22.851   8.753  45.635  1.00  0.00     0.117 C 
HETATM   31  O1  UNL     1      24.117  10.408  44.656  1.00  0.00    -0.274 OA
HETATM   32  C23 UNL     1      25.825   7.927  47.763  1.00  0.00     0.047 C 
ENDBRANCH   1  20
TORSDOF 5
ENDMDL
MODEL 6
REMARK VINA RESULT:      -8.6      3.655      9.343
REMARK  5 active torsions:
REMARK  status: ('A' for Active; 'I' for Inactive)
REMARK       I    between atoms: C2_2  and  N1_4 
REMARK    1  A    between atoms: C7_10  and  N3_11 
REMARK    2  A    between atoms: C10_14  and  C11_15 
REMARK    3  A    between atoms: C15_19  and  O2_20 
REMARK    4  A    between atoms: O2_20  and  C16_21 
REMARK    5  A    between atoms: C16_21  and  C17_22 
ROOT
HETATM    1  N3  UNL     1      27.132   7.136  48.187  1.00  0.00    -0.267 NA
HETATM    2  C8  UNL     1      26.392   6.542  48.435  1.00  0.00     0.016 A 
HETATM    3  C9  UNL     1      25.732   6.002  48.674  1.00  0.00    -0.021 A 
HETATM    4  C10 UNL     1      24.983   5.378  48.966  1.00  0.00     0.058 A 
HETATM    5  C22 UNL     1      26.374   6.181  49.238  1.00  0.00     0.134 A 
ENDROOT
BRANCH   4   6
HETATM    6  C11 UNL     1      24.728   4.657  50.183  1.00  0.00     0.000 A 
HETATM    7  C12 UNL     1      23.896   5.285  51.081  1.00  0.00     0.012 A 
HETATM    8  C13 UNL     1      23.579   4.690  52.272  1.00  0.00     0.003 A 
HETATM    9  C14 UNL     1      24.131   3.456  52.511  1.00  0.00     0.040 A 
HETATM   10  C15 UNL     1      24.967   2.738  51.702  1.00  0.00     0.107 A 
HETATM   11  C21 UNL     1      25.259   3.402  50.488  1.00  0.00     0.157 A 
HETATM   12  F1  UNL     1      26.060   2.953  49.468  1.00  0.00    -0.203 F 
BRANCH  10  13
HETATM   13  O2  UNL     1      25.616   1.567  51.697  1.00  0.00    -0.345 OA
BRANCH  13  14
HETATM   14  C16 UNL     1      26.818   1.177  52.179  1.00  0.00     0.207 C 
BRANCH  14  15
HETATM   15  C17 UNL     1      26.889   0.339  53.411  1.00  0.00     0.145 C 
HETATM   16  C18 UNL     1      27.682  -0.910  53.072  1.00  0.00     0.036 C 
HETATM   17  C19 UNL     1      29.014  -0.627  53.695  1.00  0.00     0.029 C 
HETATM   18  C20 UNL     1      28.652   0.333  54.835  1.00  0.00     0.168 C 
HETATM   19  O3  UNL     1      27.438   0.864  54.522  1.00  0.00    -0.384 OA
ENDBRANCH  14  15
ENDBRANCH  13  14
ENDBRANCH  10  13
ENDBRANCH   4   6
BRANCH   1  20
HETATM   20  C7  UNL     1      28.349   7.585  48.772  1.00  0.00     0.067 C 
HETATM   21  C6  UNL     1      29.456   6.732  48.170  1.00  0.00     0.050 C 
HETATM   22  C5  UNL     1      30.147   7.420  47.049  1.00  0.00     0.274 C 
HETATM   23  N2  UNL     1      31.207   8.302  47.492  1.00  0.00     0.092 N 
HETATM   24  C4  UNL     1      31.298   9.407  46.564  1.00  0.00     0.292 C 
HETATM   25  C25 UNL     1      31.031   8.818  48.813  1.00  0.00     0.297 C 
HETATM   26  C3  UNL     1      31.191  10.755  47.195  1.00  0.00     0.156 C 
HETATM   27  N1  UNL     1      30.101  10.876  48.133  1.00  0.00    -0.344 N 
HETATM   28  C2  UNL     1      29.491  12.133  48.180  1.00  0.00     0.216 C 
HETATM   29  C24 UNL     1      29.790   9.660  48.906  1.00  0.00     0.117 C 
HETATM   30  C1  UNL     1      28.393  12.744  48.936  1.00  0.00     0.117 C 
HETATM   31  O1  UNL     1      30.053  12.922  47.350  1.00  0.00    -0.274 OA
HETATM   32  C23 UNL     1      28.533   9.027  48.465  1.00  0.00     0.047 C 
ENDBRANCH   1  20
TORSDOF 5
ENDMDL
MODEL 7
REMARK VINA RESULT:      -8.5      1.861      2.544
REMARK  5 active torsions:
REMARK  status: ('A' for Active; 'I' for Inactive)
REMARK       I    between atoms: C2_2  and  N1_4 
REMARK    1  A    between atoms: C7_10  and  N3_11 
REMARK    2  A    between atoms: C10_14  and  C11_15 
REMARK    3  A    between atoms: C15_19  and  O2_20 
REMARK    4  A    between atoms: O2_20  and  C16_21 
REMARK    5  A    between atoms: C16_21  and  C17_22 
ROOT
HETATM    1  N3  UNL     1      26.476   3.253  49.952  1.00  0.00    -0.267 NA
HETATM    2  C8  UNL     1      26.791   3.962  49.352  1.00  0.00     0.016 A 
HETATM    3  C9  UNL     1      27.076   4.614  48.824  1.00  0.00    -0.021 A 
HETATM    4  C10 UNL     1      27.405   5.375  48.233  1.00  0.00     0.058 A 
HETATM    5  C22 UNL     1      27.067   4.727  49.689  1.00  0.00     0.134 A 
ENDROOT
BRANCH   4   6
HETATM    6  C11 UNL     1      27.881   6.700  48.520  1.00  0.00     0.000 A 
HETATM    7  C12 UNL     1      26.911   7.624  48.835  1.00  0.00     0.012 A 
HETATM    8  C13 UNL     1      27.250   8.917  49.132  1.00  0.00     0.003 A 
HETATM    9  C14 UNL     1      28.586   9.228  49.095  1.00  0.00     0.040 A 
HETATM   10  C15 UNL     1      29.634   8.402  48.797  1.00  0.00     0.107 A 
HETATM   11  C21 UNL     1      29.224   7.082  48.500  1.00  0.00     0.157 A 
HETATM   12  F1  UNL     1      30.026   6.020  48.164  1.00  0.00    -0.203 F 
BRANCH  10  13
HETATM   13  O2  UNL     1      30.968   8.452  48.697  1.00  0.00    -0.345 OA
BRANCH  13  14
HETATM   14  C16 UNL     1      31.807   9.153  47.900  1.00  0.00     0.207 C 
BRANCH  14  15
HETATM   15  C17 UNL     1      31.449  10.538  47.478  1.00  0.00     0.145 C 
HETATM   16  C18 UNL     1      32.742  11.303  47.263  1.00  0.00     0.036 C 
HETATM   17  C19 UNL     1      32.860  11.329  45.771  1.00  0.00     0.029 C 
HETATM   18  C20 UNL     1      31.397  11.227  45.319  1.00  0.00     0.168 C 
HETATM   19  O3  UNL     1      30.704  10.706  46.369  1.00  0.00    -0.384 OA
ENDBRANCH  14  15
ENDBRANCH  13  14
ENDBRANCH  10  13
ENDBRANCH   4   6
BRANCH   1  20
HETATM   20  C7  UNL     1      26.244   3.094  51.346  1.00  0.00     0.067 C 
HETATM   21  C6  UNL     1      24.744   2.906  51.514  1.00  0.00     0.050 C 
HETATM   22  C5  UNL     1      24.369   1.474  51.642  1.00  0.00     0.274 C 
HETATM   23  N2  UNL     1      24.479   0.978  52.999  1.00  0.00     0.092 N 
HETATM   24  C4  UNL     1      24.838  -0.421  52.944  1.00  0.00     0.292 C 
HETATM   25  C25 UNL     1      25.435   1.673  53.804  1.00  0.00     0.297 C 
HETATM   26  C3  UNL     1      26.067  -0.775  53.714  1.00  0.00     0.156 C 
HETATM   27  N1  UNL     1      27.178   0.115  53.483  1.00  0.00    -0.344 N 
HETATM   28  C2  UNL     1      28.440  -0.484  53.517  1.00  0.00     0.216 C 
HETATM   29  C24 UNL     1      26.823   1.526  53.246  1.00  0.00     0.117 C 
HETATM   30  C1  UNL     1      29.826  -0.033  53.355  1.00  0.00     0.117 C 
HETATM   31  O1  UNL     1      28.324  -1.733  53.751  1.00  0.00    -0.274 OA
HETATM   32  C23 UNL     1      27.007   1.917  51.835  1.00  0.00     0.047 C 
ENDBRANCH   1  20
TORSDOF 5
ENDMDL
MODEL 8
REMARK VINA RESULT:      -8.3      6.692      9.467
REMARK  5 active torsions:
REMARK  status: ('A' for Active; 'I' for Inactive)
REMARK       I    between atoms: C2_2  and  N1_4 
REMARK    1  A    between atoms: C7_10  and  N3_11 
REMARK    2  A    between atoms: C10_14  and  C11_15 
REMARK    3  A    between atoms: C15_19  and  O2_20 
REMARK    4  A    between atoms: O2_20  and  C16_21 
REMARK    5  A    between atoms: C16_21  and  C17_22 
ROOT
HETATM    1  N3  UNL     1      24.940   3.171  51.451  1.00  0.00    -0.267 NA
HETATM    2  C8  UNL     1      24.284   3.687  50.936  1.00  0.00     0.016 A 
HETATM    3  C9  UNL     1      23.688   4.140  50.462  1.00  0.00    -0.021 A 
HETATM    4  C10 UNL     1      22.997   4.642  49.908  1.00  0.00     0.058 A 
HETATM    5  C22 UNL     1      23.728   3.270  50.397  1.00  0.00     0.134 A 
ENDROOT
BRANCH   4   6
HETATM    6  C11 UNL     1      22.006   4.215  48.959  1.00  0.00     0.000 A 
HETATM    7  C12 UNL     1      22.455   4.039  47.670  1.00  0.00     0.012 A 
HETATM    8  C13 UNL     1      21.600   3.628  46.684  1.00  0.00     0.003 A 
HETATM    9  C14 UNL     1      20.296   3.409  47.050  1.00  0.00     0.040 A 
HETATM   10  C15 UNL     1      19.736   3.550  48.290  1.00  0.00     0.107 A 
HETATM   11  C21 UNL     1      20.665   3.975  49.266  1.00  0.00     0.157 A 
HETATM   12  F1  UNL     1      20.423   4.208  50.597  1.00  0.00    -0.203 F 
BRANCH  10  13
HETATM   13  O2  UNL     1      18.546   3.405  48.887  1.00  0.00    -0.345 OA
BRANCH  13  14
HETATM   14  C16 UNL     1      17.727   2.344  49.066  1.00  0.00     0.207 C 
BRANCH  14  15
HETATM   15  C17 UNL     1      17.515   1.789  50.433  1.00  0.00     0.145 C 
HETATM   16  C18 UNL     1      17.912   0.324  50.402  1.00  0.00     0.036 C 
HETATM   17  C19 UNL     1      19.251   0.335  51.069  1.00  0.00     0.029 C 
HETATM   18  C20 UNL     1      19.161   1.570  51.977  1.00  0.00     0.168 C 
HETATM   19  O3  UNL     1      18.167   2.350  51.469  1.00  0.00    -0.384 OA
ENDBRANCH  14  15
ENDBRANCH  13  14
ENDBRANCH  10  13
ENDBRANCH   4   6
BRANCH   1  20
HETATM   20  C7  UNL     1      25.351   1.813  51.550  1.00  0.00     0.067 C 
HETATM   21  C6  UNL     1      26.799   1.835  52.014  1.00  0.00     0.050 C 
HETATM   22  C5  UNL     1      26.923   1.616  53.479  1.00  0.00     0.274 C 
HETATM   23  N2  UNL     1      26.935   0.214  53.843  1.00  0.00     0.092 N 
HETATM   24  C4  UNL     1      26.324   0.077  55.146  1.00  0.00     0.292 C 
HETATM   25  C25 UNL     1      26.256  -0.641  52.919  1.00  0.00     0.297 C 
HETATM   26  C3  UNL     1      25.184  -0.886  55.198  1.00  0.00     0.156 C 
HETATM   27  N1  UNL     1      24.232  -0.720  54.128  1.00  0.00    -0.344 N 
HETATM   28  C2  UNL     1      22.902  -0.988  54.466  1.00  0.00     0.216 C 
HETATM   29  C24 UNL     1      24.796  -0.296  52.834  1.00  0.00     0.117 C 
HETATM   30  C1  UNL     1      21.613  -0.973  53.766  1.00  0.00     0.117 C 
HETATM   31  O1  UNL     1      22.823  -1.328  55.693  1.00  0.00    -0.274 OA
HETATM   32  C23 UNL     1      24.471   1.108  52.518  1.00  0.00     0.047 C 
ENDBRANCH   1  20
TORSDOF 5
ENDMDL
MODEL 9
REMARK VINA RESULT:      -8.2      7.920     13.189
REMARK  5 active torsions:
REMARK  status: ('A' for Active; 'I' for Inactive)
REMARK       I    between atoms: C2_2  and  N1_4 
REMARK    1  A    between atoms: C7_10  and  N3_11 
REMARK    2  A    between atoms: C10_14  and  C11_15 
REMARK    3  A    between atoms: C15_19  and  O2_20 
REMARK    4  A    between atoms: O2_20  and  C16_21 
REMARK    5  A    between atoms: C16_21  and  C17_22 
ROOT
HETATM    1  N3  UNL     1      21.526   0.234  51.813  1.00  0.00    -0.267 NA
HETATM    2  C8  UNL     1      20.573   0.228  51.582  1.00  0.00     0.016 A 
HETATM    3  C9  UNL     1      19.710   0.236  51.383  1.00  0.00    -0.021 A 
HETATM    4  C10 UNL     1      18.716   0.263  51.166  1.00  0.00     0.058 A 
HETATM    5  C22 UNL     1      20.062   0.904  51.821  1.00  0.00     0.134 A 
ENDROOT
BRANCH   4   6
HETATM    6  C11 UNL     1      17.677   1.216  51.448  1.00  0.00     0.000 A 
HETATM    7  C12 UNL     1      18.034   2.538  51.316  1.00  0.00     0.012 A 
HETATM    8  C13 UNL     1      17.124   3.533  51.554  1.00  0.00     0.003 A 
HETATM    9  C14 UNL     1      15.863   3.139  51.926  1.00  0.00     0.040 A 
HETATM   10  C15 UNL     1      15.395   1.865  52.091  1.00  0.00     0.107 A 
HETATM   11  C21 UNL     1      16.377   0.882  51.831  1.00  0.00     0.157 A 
HETATM   12  F1  UNL     1      16.228  -0.480  51.906  1.00  0.00    -0.203 F 
BRANCH  10  13
HETATM   13  O2  UNL     1      14.262   1.237  52.430  1.00  0.00    -0.345 OA
BRANCH  13  14
HETATM   14  C16 UNL     1      13.362   1.430  53.421  1.00  0.00     0.207 C 
BRANCH  14  15
HETATM   15  C17 UNL     1      12.220   2.367  53.216  1.00  0.00     0.145 C 
HETATM   16  C18 UNL     1      11.837   2.930  54.572  1.00  0.00     0.036 C 
HETATM   17  C19 UNL     1      12.427   4.305  54.532  1.00  0.00     0.029 C 
HETATM   18  C20 UNL     1      12.447   4.614  53.029  1.00  0.00     0.168 C 
HETATM   19  O3  UNL     1      12.382   3.416  52.387  1.00  0.00    -0.384 OA
ENDBRANCH  14  15
ENDBRANCH  13  14
ENDBRANCH  10  13
ENDBRANCH   4   6
BRANCH   1  20
HETATM   20  C7  UNL     1      22.413   1.064  52.554  1.00  0.00     0.067 C 
HETATM   21  C6  UNL     1      23.109   0.159  53.559  1.00  0.00     0.050 C 
HETATM   22  C5  UNL     1      24.454  -0.267  53.092  1.00  0.00     0.274 C 
HETATM   23  N2  UNL     1      25.492   0.697  53.396  1.00  0.00     0.092 N 
HETATM   24  C4  UNL     1      26.495   0.628  52.357  1.00  0.00     0.292 C 
HETATM   25  C25 UNL     1      25.029   2.045  53.508  1.00  0.00     0.297 C 
HETATM   26  C3  UNL     1      26.785   1.931  51.690  1.00  0.00     0.156 C 
HETATM   27  N1  UNL     1      25.605   2.666  51.306  1.00  0.00    -0.344 N 
HETATM   28  C2  UNL     1      25.722   3.411  50.129  1.00  0.00     0.216 C 
HETATM   29  C24 UNL     1      24.448   2.528  52.209  1.00  0.00     0.117 C 
HETATM   30  C1  UNL     1      24.849   4.294  49.348  1.00  0.00     0.117 C 
HETATM   31  O1  UNL     1      26.890   3.267  49.636  1.00  0.00    -0.274 OA
HETATM   32  C23 UNL     1      23.378   1.699  51.620  1.00  0.00     0.047 C 
ENDBRANCH   1  20
TORSDOF 5
ENDMDL
