MODEL 1
REMARK VINA RESULT:      -7.9      0.000      0.000
REMARK  5 active torsions:
REMARK  status: ('A' for Active; 'I' for Inactive)
REMARK    1  A    between atoms: O1_2  and  C2_3 
REMARK    2  A    between atoms: C9_12  and  C10_13 
REMARK    3  A    between atoms: C13_16  and  C14_17 
REMARK    4  A    between atoms: C14_17  and  C15_18 
REMARK    5  A    between atoms: C15_18  and  O4_20 
ROOT
HETATM    1  C2  UNL     1      27.503  -0.042  53.967  1.00  0.00     0.070 A 
HETATM    2  C3  UNL     1      26.859  -0.959  53.171  1.00  0.00     0.037 A 
HETATM    3  C4  UNL     1      25.702  -0.576  52.525  1.00  0.00     0.013 A 
HETATM    4  C5  UNL     1      25.116   0.673  52.607  1.00  0.00    -0.012 A 
HETATM    5  C6  UNL     1      25.808   1.548  53.420  1.00  0.00     0.044 A 
HETATM    6  C7  UNL     1      26.969   1.224  54.091  1.00  0.00     0.066 A 
HETATM    7  N1  UNL     1      25.191   2.830  53.463  1.00  0.00    -0.326 N 
HETATM    8  C8  UNL     1      24.052   2.757  52.631  1.00  0.00     0.236 A 
HETATM    9  O2  UNL     1      23.216   3.678  52.358  1.00  0.00    -0.272 OA
HETATM   10  C9  UNL     1      23.931   1.362  52.064  1.00  0.00     0.163 A 
HETATM   11  H7  UNL     1      25.457   3.699  53.974  1.00  0.00     0.169 HD
ENDROOT
BRANCH  10  12
HETATM   12  C10 UNL     1      22.639   0.765  52.430  1.00  0.00     0.025 C 
HETATM   13  C11 UNL     1      21.484   0.424  51.856  1.00  0.00    -0.054 C 
HETATM   14  C12 UNL     1      21.198   0.616  50.418  1.00  0.00     0.046 C 
HETATM   15  C13 UNL     1      20.512  -0.167  52.799  1.00  0.00     0.044 C 
HETATM   16  C16 UNL     1      21.065   0.218  54.139  1.00  0.00     0.129 C 
HETATM   17  N2  UNL     1      22.479   0.370  53.810  1.00  0.00    -0.391 N 
HETATM   18  H18 UNL     1      23.192   0.184  54.575  1.00  0.00     0.159 HD
BRANCH  15  19
HETATM   19  C14 UNL     1      19.126   0.407  52.653  1.00  0.00     0.120 C 
BRANCH  19  20
HETATM   20  C15 UNL     1      18.167  -0.715  52.839  1.00  0.00     0.140 C 
HETATM   21  O3  UNL     1      17.510  -1.274  51.898  1.00  0.00    -0.650 OA
BRANCH  20  22
HETATM   22  O4  UNL     1      17.886  -1.275  54.084  1.00  0.00    -0.776 OA
HETATM   23  H15 UNL     1      18.230  -2.183  54.376  1.00  0.00     0.167 HD
ENDBRANCH  20  22
ENDBRANCH  19  20
ENDBRANCH  15  19
ENDBRANCH  10  12
BRANCH   1  24
HETATM   24  O1  UNL     1      28.657  -0.518  54.575  1.00  0.00    -0.356 OA
HETATM   25  C1  UNL     1      29.805  -0.891  53.836  1.00  0.00     0.210 C 
ENDBRANCH   1  24
TORSDOF 5
ENDMDL
MODEL 2
REMARK VINA RESULT:      -7.8      2.395      7.271
REMARK  5 active torsions:
REMARK  status: ('A' for Active; 'I' for Inactive)
REMARK    1  A    between atoms: O1_2  and  C2_3 
REMARK    2  A    between atoms: C9_12  and  C10_13 
REMARK    3  A    between atoms: C13_16  and  C14_17 
REMARK    4  A    between atoms: C14_17  and  C15_18 
REMARK    5  A    between atoms: C15_18  and  O4_20 
ROOT
HETATM    1  C2  UNL     1      20.158   1.791  51.849  1.00  0.00     0.070 A 
HETATM    2  C3  UNL     1      21.165   1.443  50.980  1.00  0.00     0.037 A 
HETATM    3  C4  UNL     1      22.177   0.624  51.436  1.00  0.00     0.013 A 
HETATM    4  C5  UNL     1      22.275   0.109  52.715  1.00  0.00    -0.012 A 
HETATM    5  C6  UNL     1      21.236   0.494  53.538  1.00  0.00     0.044 A 
HETATM    6  C7  UNL     1      20.197   1.310  53.141  1.00  0.00     0.066 A 
HETATM    7  N1  UNL     1      21.356  -0.072  54.839  1.00  0.00    -0.326 N 
HETATM    8  C8  UNL     1      22.531  -0.854  54.832  1.00  0.00     0.236 A 
HETATM    9  O2  UNL     1      23.015  -1.557  55.777  1.00  0.00    -0.272 OA
HETATM   10  C9  UNL     1      23.194  -0.754  53.478  1.00  0.00     0.163 A 
HETATM   11  H7  UNL     1      20.748   0.019  55.682  1.00  0.00     0.169 HD
ENDROOT
BRANCH  10  12
HETATM   12  C10 UNL     1      24.566  -0.244  53.611  1.00  0.00     0.025 C 
HETATM   13  C11 UNL     1      25.223   0.916  53.559  1.00  0.00    -0.054 C 
HETATM   14  C12 UNL     1      24.565   2.216  53.301  1.00  0.00     0.046 C 
HETATM   15  C13 UNL     1      26.676   0.779  53.784  1.00  0.00     0.044 C 
HETATM   16  C16 UNL     1      26.911  -0.689  53.587  1.00  0.00     0.129 C 
HETATM   17  N2  UNL     1      25.590  -1.217  53.914  1.00  0.00    -0.391 N 
HETATM   18  H18 UNL     1      25.530  -2.198  54.315  1.00  0.00     0.159 HD
BRANCH  15  19
HETATM   19  C14 UNL     1      27.502   1.550  52.788  1.00  0.00     0.120 C 
BRANCH  19  20
HETATM   20  C15 UNL     1      28.613   2.191  53.543  1.00  0.00     0.140 C 
HETATM   21  O3  UNL     1      28.938   1.903  54.742  1.00  0.00    -0.650 OA
BRANCH  20  22
HETATM   22  O4  UNL     1      29.421   3.189  53.001  1.00  0.00    -0.776 OA
HETATM   23  H15 UNL     1      30.432   3.188  53.078  1.00  0.00     0.167 HD
ENDBRANCH  20  22
ENDBRANCH  19  20
ENDBRANCH  15  19
ENDBRANCH  10  12
BRANCH   1  24
HETATM   24  O1  UNL     1      19.186   2.617  51.301  1.00  0.00    -0.356 OA
HETATM   25  C1  UNL     1      19.452   3.955  50.924  1.00  0.00     0.210 C 
ENDBRANCH   1  24
TORSDOF 5
ENDMDL
MODEL 3
REMARK VINA RESULT:      -7.5      4.544      6.861
REMARK  5 active torsions:
REMARK  status: ('A' for Active; 'I' for Inactive)
REMARK    1  A    between atoms: O1_2  and  C2_3 
REMARK    2  A    between atoms: C9_12  and  C10_13 
REMARK    3  A    between atoms: C13_16  and  C14_17 
REMARK    4  A    between atoms: C14_17  and  C15_18 
REMARK    5  A    between atoms: C15_18  and  O4_20 
ROOT
HETATM    1  C2  UNL     1      27.833   6.711  48.171  1.00  0.00     0.070 A 
HETATM    2  C3  UNL     1      28.312   5.447  48.428  1.00  0.00     0.037 A 
HETATM    3  C4  UNL     1      27.433   4.492  48.894  1.00  0.00     0.013 A 
HETATM    4  C5  UNL     1      26.087   4.690  49.133  1.00  0.00    -0.012 A 
HETATM    5  C6  UNL     1      25.668   5.976  48.857  1.00  0.00     0.044 A 
HETATM    6  C7  UNL     1      26.498   6.974  48.389  1.00  0.00     0.066 A 
HETATM    7  N1  UNL     1      24.273   6.139  49.091  1.00  0.00    -0.326 N 
HETATM    8  C8  UNL     1      23.791   4.889  49.537  1.00  0.00     0.236 A 
HETATM    9  O2  UNL     1      22.597   4.570  49.844  1.00  0.00    -0.272 OA
HETATM   10  C9  UNL     1      24.935   3.906  49.614  1.00  0.00     0.163 A 
HETATM   11  H7  UNL     1      23.656   6.972  48.983  1.00  0.00     0.169 HD
ENDROOT
BRANCH  10  12
HETATM   12  C10 UNL     1      25.067   3.372  50.977  1.00  0.00     0.025 C 
HETATM   13  C11 UNL     1      25.713   2.401  51.624  1.00  0.00    -0.054 C 
HETATM   14  C12 UNL     1      26.634   1.450  50.963  1.00  0.00     0.046 C 
HETATM   15  C13 UNL     1      25.421   2.365  53.072  1.00  0.00     0.044 C 
HETATM   16  C16 UNL     1      24.181   3.200  53.187  1.00  0.00     0.129 C 
HETATM   17  N2  UNL     1      24.325   4.054  52.012  1.00  0.00    -0.391 N 
HETATM   18  H18 UNL     1      23.896   5.025  52.045  1.00  0.00     0.159 HD
BRANCH  15  19
HETATM   19  C14 UNL     1      25.129   0.976  53.580  1.00  0.00     0.120 C 
BRANCH  19  20
HETATM   20  C15 UNL     1      26.226   0.615  54.518  1.00  0.00     0.140 C 
HETATM   21  O3  UNL     1      27.277   1.312  54.712  1.00  0.00    -0.650 OA
BRANCH  20  22
HETATM   22  O4  UNL     1      26.211  -0.546  55.290  1.00  0.00    -0.776 OA
HETATM   23  H15 UNL     1      26.095  -0.541  56.298  1.00  0.00     0.167 HD
ENDBRANCH  20  22
ENDBRANCH  19  20
ENDBRANCH  15  19
ENDBRANCH  10  12
BRANCH   1  24
HETATM   24  O1  UNL     1      28.789   7.603  47.706  1.00  0.00    -0.356 OA
HETATM   25  C1  UNL     1      29.850   8.070  48.518  1.00  0.00     0.210 C 
ENDBRANCH   1  24
TORSDOF 5
ENDMDL
MODEL 4
REMARK VINA RESULT:      -7.2      3.443      7.024
REMARK  5 active torsions:
REMARK  status: ('A' for Active; 'I' for Inactive)
REMARK    1  A    between atoms: O1_2  and  C2_3 
REMARK    2  A    between atoms: C9_12  and  C10_13 
REMARK    3  A    between atoms: C13_16  and  C14_17 
REMARK    4  A    between atoms: C14_17  and  C15_18 
REMARK    5  A    between atoms: C15_18  and  O4_20 
ROOT
HETATM    1  C2  UNL     1      22.276   3.110  47.722  1.00  0.00     0.070 A 
HETATM    2  C3  UNL     1      22.184   1.855  48.278  1.00  0.00     0.037 A 
HETATM    3  C4  UNL     1      22.435   1.712  49.627  1.00  0.00     0.013 A 
HETATM    4  C5  UNL     1      22.779   2.734  50.491  1.00  0.00    -0.012 A 
HETATM    5  C6  UNL     1      22.855   3.966  49.874  1.00  0.00     0.044 A 
HETATM    6  C7  UNL     1      22.615   4.174  48.531  1.00  0.00     0.066 A 
HETATM    7  N1  UNL     1      23.188   4.998  50.796  1.00  0.00    -0.326 N 
HETATM    8  C8  UNL     1      23.327   4.382  52.059  1.00  0.00     0.236 A 
HETATM    9  O2  UNL     1      23.599   4.928  53.176  1.00  0.00    -0.272 OA
HETATM   10  C9  UNL     1      23.100   2.895  51.921  1.00  0.00     0.163 A 
HETATM   11  H7  UNL     1      23.321   6.023  50.655  1.00  0.00     0.169 HD
ENDROOT
BRANCH  10  12
HETATM   12  C10 UNL     1      24.277   2.147  52.385  1.00  0.00     0.025 C 
HETATM   13  C11 UNL     1      24.568   1.002  53.005  1.00  0.00    -0.054 C 
HETATM   14  C12 UNL     1      23.545   0.032  53.452  1.00  0.00     0.046 C 
HETATM   15  C13 UNL     1      26.017   0.793  53.203  1.00  0.00     0.044 C 
HETATM   16  C16 UNL     1      26.588   2.162  52.982  1.00  0.00     0.129 C 
HETATM   17  N2  UNL     1      25.566   2.741  52.115  1.00  0.00    -0.391 N 
HETATM   18  H18 UNL     1      25.864   3.488  51.422  1.00  0.00     0.159 HD
BRANCH  15  19
HETATM   19  C14 UNL     1      26.361   0.335  54.597  1.00  0.00     0.120 C 
BRANCH  19  20
HETATM   20  C15 UNL     1      27.821   0.049  54.615  1.00  0.00     0.140 C 
HETATM   21  O3  UNL     1      28.695   0.762  55.211  1.00  0.00    -0.650 OA
BRANCH  20  22
HETATM   22  O4  UNL     1      28.387  -1.048  53.967  1.00  0.00    -0.776 OA
HETATM   23  H15 UNL     1      28.272  -1.227  52.976  1.00  0.00     0.167 HD
ENDBRANCH  20  22
ENDBRANCH  19  20
ENDBRANCH  15  19
ENDBRANCH  10  12
BRANCH   1  24
HETATM   24  O1  UNL     1      22.006   3.157  46.361  1.00  0.00    -0.356 OA
HETATM   25  C1  UNL     1      21.517   4.322  45.725  1.00  0.00     0.210 C 
ENDBRANCH   1  24
TORSDOF 5
ENDMDL
MODEL 5
REMARK VINA RESULT:      -7.2      3.130      6.186
REMARK  5 active torsions:
REMARK  status: ('A' for Active; 'I' for Inactive)
REMARK    1  A    between atoms: O1_2  and  C2_3 
REMARK    2  A    between atoms: C9_12  and  C10_13 
REMARK    3  A    between atoms: C13_16  and  C14_17 
REMARK    4  A    between atoms: C14_17  and  C15_18 
REMARK    5  A    between atoms: C15_18  and  O4_20 
ROOT
HETATM    1  C2  UNL     1      26.535   0.020  53.537  1.00  0.00     0.070 A 
HETATM    2  C3  UNL     1      26.896   1.279  53.956  1.00  0.00     0.037 A 
HETATM    3  C4  UNL     1      26.019   2.322  53.742  1.00  0.00     0.013 A 
HETATM    4  C5  UNL     1      24.784   2.217  53.132  1.00  0.00    -0.012 A 
HETATM    5  C6  UNL     1      24.480   0.931  52.734  1.00  0.00     0.044 A 
HETATM    6  C7  UNL     1      25.314  -0.152  52.920  1.00  0.00     0.066 A 
HETATM    7  N1  UNL     1      23.192   0.855  52.131  1.00  0.00    -0.326 N 
HETATM    8  C8  UNL     1      22.660   2.163  52.153  1.00  0.00     0.236 A 
HETATM    9  O2  UNL     1      21.522   2.557  51.737  1.00  0.00    -0.272 OA
HETATM   10  C9  UNL     1      23.665   3.107  52.769  1.00  0.00     0.163 A 
HETATM   11  H7  UNL     1      22.673   0.045  51.730  1.00  0.00     0.169 HD
ENDROOT
BRANCH  10  12
HETATM   12  C10 UNL     1      24.004   4.186  51.831  1.00  0.00     0.025 C 
HETATM   13  C11 UNL     1      24.573   4.345  50.635  1.00  0.00    -0.054 C 
HETATM   14  C12 UNL     1      25.096   3.224  49.823  1.00  0.00     0.046 C 
HETATM   15  C13 UNL     1      24.631   5.754  50.195  1.00  0.00     0.044 C 
HETATM   16  C16 UNL     1      24.382   6.514  51.463  1.00  0.00     0.129 C 
HETATM   17  N2  UNL     1      23.625   5.524  52.223  1.00  0.00    -0.391 N 
HETATM   18  H18 UNL     1      22.921   5.874  52.937  1.00  0.00     0.159 HD
BRANCH  15  19
HETATM   19  C14 UNL     1      25.978   6.144  49.643  1.00  0.00     0.120 C 
BRANCH  19  20
HETATM   20  C15 UNL     1      26.065   7.628  49.709  1.00  0.00     0.140 C 
HETATM   21  O3  UNL     1      25.399   8.429  48.973  1.00  0.00    -0.650 OA
BRANCH  20  22
HETATM   22  O4  UNL     1      26.901   8.299  50.600  1.00  0.00    -0.776 OA
HETATM   23  H15 UNL     1      26.882   9.305  50.729  1.00  0.00     0.167 HD
ENDBRANCH  20  22
ENDBRANCH  19  20
ENDBRANCH  15  19
ENDBRANCH  10  12
BRANCH   1  24
HETATM   24  O1  UNL     1      27.479  -0.965  53.794  1.00  0.00    -0.356 OA
HETATM   25  C1  UNL     1      28.871  -0.723  53.704  1.00  0.00     0.210 C 
ENDBRANCH   1  24
TORSDOF 5
ENDMDL
MODEL 6
REMARK VINA RESULT:      -7.1      2.954      4.496
REMARK  5 active torsions:
REMARK  status: ('A' for Active; 'I' for Inactive)
REMARK    1  A    between atoms: O1_2  and  C2_3 
REMARK    2  A    between atoms: C9_12  and  C10_13 
REMARK    3  A    between atoms: C13_16  and  C14_17 
REMARK    4  A    between atoms: C14_17  and  C15_18 
REMARK    5  A    between atoms: C15_18  and  O4_20 
ROOT
HETATM    1  C2  UNL     1      27.130  -0.633  53.163  1.00  0.00     0.070 A 
HETATM    2  C3  UNL     1      27.426   0.559  52.545  1.00  0.00     0.037 A 
HETATM    3  C4  UNL     1      26.392   1.419  52.241  1.00  0.00     0.013 A 
HETATM    4  C5  UNL     1      25.055   1.189  52.504  1.00  0.00    -0.012 A 
HETATM    5  C6  UNL     1      24.823  -0.022  53.124  1.00  0.00     0.044 A 
HETATM    6  C7  UNL     1      25.814  -0.923  53.454  1.00  0.00     0.066 A 
HETATM    7  N1  UNL     1      23.440  -0.216  53.402  1.00  0.00    -0.326 N 
HETATM    8  C8  UNL     1      22.769   0.935  52.933  1.00  0.00     0.236 A 
HETATM    9  O2  UNL     1      21.525   1.200  52.993  1.00  0.00    -0.272 OA
HETATM   10  C9  UNL     1      23.768   1.880  52.308  1.00  0.00     0.163 A 
HETATM   11  H7  UNL     1      22.940  -1.011  53.855  1.00  0.00     0.169 HD
ENDROOT
BRANCH  10  12
HETATM   12  C10 UNL     1      23.413   2.156  50.909  1.00  0.00     0.025 C 
HETATM   13  C11 UNL     1      23.750   2.992  49.926  1.00  0.00    -0.054 C 
HETATM   14  C12 UNL     1      24.776   4.049  50.068  1.00  0.00     0.046 C 
HETATM   15  C13 UNL     1      22.998   2.762  48.675  1.00  0.00     0.044 C 
HETATM   16  C16 UNL     1      21.844   1.919  49.126  1.00  0.00     0.129 C 
HETATM   17  N2  UNL     1      22.417   1.294  50.314  1.00  0.00    -0.391 N 
HETATM   18  H18 UNL     1      22.062   0.334  50.594  1.00  0.00     0.159 HD
BRANCH  15  19
HETATM   19  C14 UNL     1      22.472   4.034  48.062  1.00  0.00     0.120 C 
BRANCH  19  20
HETATM   20  C15 UNL     1      21.713   3.649  46.841  1.00  0.00     0.140 C 
HETATM   21  O3  UNL     1      22.244   3.280  45.741  1.00  0.00    -0.650 OA
BRANCH  20  22
HETATM   22  O4  UNL     1      20.321   3.657  46.780  1.00  0.00    -0.776 OA
HETATM   23  H15 UNL     1      19.741   2.955  47.226  1.00  0.00     0.167 HD
ENDBRANCH  20  22
ENDBRANCH  19  20
ENDBRANCH  15  19
ENDBRANCH  10  12
BRANCH   1  24
HETATM   24  O1  UNL     1      28.234  -1.432  53.430  1.00  0.00    -0.356 OA
HETATM   25  C1  UNL     1      29.540  -0.903  53.558  1.00  0.00     0.210 C 
ENDBRANCH   1  24
TORSDOF 5
ENDMDL
MODEL 7
REMARK VINA RESULT:      -7.1      2.409      2.826
REMARK  5 active torsions:
REMARK  status: ('A' for Active; 'I' for Inactive)
REMARK    1  A    between atoms: O1_2  and  C2_3 
REMARK    2  A    between atoms: C9_12  and  C10_13 
REMARK    3  A    between atoms: C13_16  and  C14_17 
REMARK    4  A    between atoms: C14_17  and  C15_18 
REMARK    5  A    between atoms: C15_18  and  O4_20 
ROOT
HETATM    1  C2  UNL     1      27.662   0.145  53.499  1.00  0.00     0.070 A 
HETATM    2  C3  UNL     1      26.497  -0.518  53.188  1.00  0.00     0.037 A 
HETATM    3  C4  UNL     1      25.603   0.088  52.331  1.00  0.00     0.013 A 
HETATM    4  C5  UNL     1      25.771   1.328  51.743  1.00  0.00    -0.012 A 
HETATM    5  C6  UNL     1      26.957   1.941  52.094  1.00  0.00     0.044 A 
HETATM    6  C7  UNL     1      27.890   1.386  52.945  1.00  0.00     0.066 A 
HETATM    7  N1  UNL     1      27.108   3.203  51.453  1.00  0.00    -0.326 N 
HETATM    8  C8  UNL     1      25.958   3.392  50.656  1.00  0.00     0.236 A 
HETATM    9  O2  UNL     1      25.680   4.373  49.894  1.00  0.00    -0.272 OA
HETATM   10  C9  UNL     1      25.030   2.212  50.825  1.00  0.00     0.163 A 
HETATM   11  H7  UNL     1      27.877   3.907  51.504  1.00  0.00     0.169 HD
ENDROOT
BRANCH  10  12
HETATM   12  C10 UNL     1      23.715   2.654  51.308  1.00  0.00     0.025 C 
HETATM   13  C11 UNL     1      22.425   2.347  51.155  1.00  0.00    -0.054 C 
HETATM   14  C12 UNL     1      21.943   1.261  50.275  1.00  0.00     0.046 C 
HETATM   15  C13 UNL     1      21.520   3.200  51.953  1.00  0.00     0.044 C 
HETATM   16  C16 UNL     1      22.392   4.360  52.327  1.00  0.00     0.129 C 
HETATM   17  N2  UNL     1      23.710   3.734  52.268  1.00  0.00    -0.391 N 
HETATM   18  H18 UNL     1      24.474   4.117  52.899  1.00  0.00     0.159 HD
BRANCH  15  19
HETATM   19  C14 UNL     1      20.339   3.704  51.164  1.00  0.00     0.120 C 
BRANCH  19  20
HETATM   20  C15 UNL     1      19.122   3.080  51.751  1.00  0.00     0.140 C 
HETATM   21  O3  UNL     1      19.012   1.846  52.054  1.00  0.00    -0.650 OA
BRANCH  20  22
HETATM   22  O4  UNL     1      17.961   3.798  52.031  1.00  0.00    -0.776 OA
HETATM   23  H15 UNL     1      17.939   4.598  52.654  1.00  0.00     0.167 HD
ENDBRANCH  20  22
ENDBRANCH  19  20
ENDBRANCH  15  19
ENDBRANCH  10  12
BRANCH   1  24
HETATM   24  O1  UNL     1      28.499  -0.542  54.368  1.00  0.00    -0.356 OA
HETATM   25  C1  UNL     1      29.755  -1.054  53.964  1.00  0.00     0.210 C 
ENDBRANCH   1  24
TORSDOF 5
ENDMDL
MODEL 8
REMARK VINA RESULT:      -6.9      2.578      6.975
REMARK  5 active torsions:
REMARK  status: ('A' for Active; 'I' for Inactive)
REMARK    1  A    between atoms: O1_2  and  C2_3 
REMARK    2  A    between atoms: C9_12  and  C10_13 
REMARK    3  A    between atoms: C13_16  and  C14_17 
REMARK    4  A    between atoms: C14_17  and  C15_18 
REMARK    5  A    between atoms: C15_18  and  O4_20 
ROOT
HETATM    1  C2  UNL     1      19.150  -0.520  53.066  1.00  0.00     0.070 A 
HETATM    2  C3  UNL     1      19.108   0.043  51.812  1.00  0.00     0.037 A 
HETATM    3  C4  UNL     1      20.277   0.539  51.273  1.00  0.00     0.013 A 
HETATM    4  C5  UNL     1      21.513   0.524  51.890  1.00  0.00    -0.012 A 
HETATM    5  C6  UNL     1      21.489  -0.052  53.144  1.00  0.00     0.044 A 
HETATM    6  C7  UNL     1      20.354  -0.566  53.736  1.00  0.00     0.066 A 
HETATM    7  N1  UNL     1      22.782  -0.073  53.740  1.00  0.00    -0.326 N 
HETATM    8  C8  UNL     1      23.664   0.522  52.811  1.00  0.00     0.236 A 
HETATM    9  O2  UNL     1      24.921   0.694  52.917  1.00  0.00    -0.272 OA
HETATM   10  C9  UNL     1      22.890   0.960  51.590  1.00  0.00     0.163 A 
HETATM   11  H7  UNL     1      23.102  -0.432  54.665  1.00  0.00     0.169 HD
ENDROOT
BRANCH  10  12
HETATM   12  C10 UNL     1      23.053   2.402  51.364  1.00  0.00     0.025 C 
HETATM   13  C11 UNL     1      23.145   3.264  50.349  1.00  0.00    -0.054 C 
HETATM   14  C12 UNL     1      23.087   2.860  48.927  1.00  0.00     0.046 C 
HETATM   15  C13 UNL     1      23.310   4.666  50.782  1.00  0.00     0.044 C 
HETATM   16  C16 UNL     1      23.716   4.531  52.219  1.00  0.00     0.129 C 
HETATM   17  N2  UNL     1      23.125   3.236  52.543  1.00  0.00    -0.391 N 
HETATM   18  H18 UNL     1      22.829   3.059  53.547  1.00  0.00     0.159 HD
BRANCH  15  19
HETATM   19  C14 UNL     1      24.394   5.392  50.028  1.00  0.00     0.120 C 
BRANCH  19  20
HETATM   20  C15 UNL     1      24.505   6.752  50.623  1.00  0.00     0.140 C 
HETATM   21  O3  UNL     1      23.536   7.572  50.749  1.00  0.00    -0.650 OA
BRANCH  20  22
HETATM   22  O4  UNL     1      25.704   7.272  51.107  1.00  0.00    -0.776 OA
HETATM   23  H15 UNL     1      26.086   8.162  50.805  1.00  0.00     0.167 HD
ENDBRANCH  20  22
ENDBRANCH  19  20
ENDBRANCH  15  19
ENDBRANCH  10  12
BRANCH   1  24
HETATM   24  O1  UNL     1      17.928  -0.992  53.526  1.00  0.00    -0.356 OA
HETATM   25  C1  UNL     1      17.604  -2.369  53.540  1.00  0.00     0.210 C 
ENDBRANCH   1  24
TORSDOF 5
ENDMDL
MODEL 9
REMARK VINA RESULT:      -6.9      2.052      6.899
REMARK  5 active torsions:
REMARK  status: ('A' for Active; 'I' for Inactive)
REMARK    1  A    between atoms: O1_2  and  C2_3 
REMARK    2  A    between atoms: C9_12  and  C10_13 
REMARK    3  A    between atoms: C13_16  and  C14_17 
REMARK    4  A    between atoms: C14_17  and  C15_18 
REMARK    5  A    between atoms: C15_18  and  O4_20 
ROOT
HETATM    1  C2  UNL     1      19.496   1.210  51.048  1.00  0.00     0.070 A 
HETATM    2  C3  UNL     1      19.967   0.202  51.857  1.00  0.00     0.037 A 
HETATM    3  C4  UNL     1      21.169   0.386  52.508  1.00  0.00     0.013 A 
HETATM    4  C5  UNL     1      21.962   1.515  52.422  1.00  0.00    -0.012 A 
HETATM    5  C6  UNL     1      21.436   2.488  51.596  1.00  0.00     0.044 A 
HETATM    6  C7  UNL     1      20.241   2.363  50.919  1.00  0.00     0.066 A 
HETATM    7  N1  UNL     1      22.266   3.644  51.549  1.00  0.00    -0.326 N 
HETATM    8  C8  UNL     1      23.370   3.383  52.390  1.00  0.00     0.236 A 
HETATM    9  O2  UNL     1      24.350   4.149  52.663  1.00  0.00    -0.272 OA
HETATM   10  C9  UNL     1      23.245   1.994  52.969  1.00  0.00     0.163 A 
HETATM   11  H7  UNL     1      22.157   4.542  51.029  1.00  0.00     0.169 HD
ENDROOT
BRANCH  10  12
HETATM   12  C10 UNL     1      24.417   1.180  52.618  1.00  0.00     0.025 C 
HETATM   13  C11 UNL     1      24.956  -0.002  52.923  1.00  0.00    -0.054 C 
HETATM   14  C12 UNL     1      24.355  -0.949  53.888  1.00  0.00     0.046 C 
HETATM   15  C13 UNL     1      26.215  -0.277  52.201  1.00  0.00     0.044 C 
HETATM   16  C16 UNL     1      26.615   1.075  51.693  1.00  0.00     0.129 C 
HETATM   17  N2  UNL     1      25.313   1.732  51.628  1.00  0.00    -0.391 N 
HETATM   18  H18 UNL     1      25.174   2.497  50.904  1.00  0.00     0.159 HD
BRANCH  15  19
HETATM   19  C14 UNL     1      27.303  -0.810  53.097  1.00  0.00     0.120 C 
BRANCH  19  20
HETATM   20  C15 UNL     1      27.532  -2.229  52.710  1.00  0.00     0.140 C 
HETATM   21  O3  UNL     1      26.823  -2.878  51.871  1.00  0.00    -0.650 OA
BRANCH  20  22
HETATM   22  O4  UNL     1      28.565  -3.001  53.239  1.00  0.00    -0.776 OA
HETATM   23  H15 UNL     1      28.850  -3.892  52.847  1.00  0.00     0.167 HD
ENDBRANCH  20  22
ENDBRANCH  19  20
ENDBRANCH  15  19
ENDBRANCH  10  12
BRANCH   1  24
HETATM   24  O1  UNL     1      18.282   0.935  50.435  1.00  0.00    -0.356 OA
HETATM   25  C1  UNL     1      17.599   1.888  49.642  1.00  0.00     0.210 C 
ENDBRANCH   1  24
TORSDOF 5
ENDMDL
