MODEL 1
REMARK VINA RESULT:      -7.8      0.000      0.000
REMARK  5 active torsions:
REMARK  status: ('A' for Active; 'I' for Inactive)
REMARK    1  A    between atoms: C1_2  and  C2_3 
REMARK    2  A    between atoms: C5_6  and  C6_7 
REMARK    3  A    between atoms: C6_7  and  C7_8 
REMARK    4  A    between atoms: C8_9  and  C9_10 
REMARK    5  A    between atoms: C9_10  and  C10_11 
ROOT
HETATM    1  C7  UNL     1      24.905   3.571  50.818  1.00  0.00    -0.026 C 
HETATM    2  C8  UNL     1      24.430   3.397  52.032  1.00  0.00    -0.024 C 
ENDROOT
BRANCH   2   3
HETATM    3  C9  UNL     1      24.700   2.726  53.324  1.00  0.00     0.094 C 
BRANCH   3   4
HETATM    4  C10 UNL     1      25.844   1.873  53.384  1.00  0.00     0.080 A 
HETATM    5  N2  UNL     1      27.154   2.019  53.759  1.00  0.00    -0.245 NA
HETATM    6  C11 UNL     1      27.850   0.889  53.629  1.00  0.00     0.074 A 
HETATM    7  C12 UNL     1      29.204   0.916  53.983  1.00  0.00     0.033 A 
HETATM    8  C16 UNL     1      27.387  -0.376  53.167  1.00  0.00     0.035 A 
HETATM    9  C13 UNL     1      29.974  -0.200  53.876  1.00  0.00     0.002 A 
HETATM   10  C14 UNL     1      29.515  -1.419  53.427  1.00  0.00     0.002 A 
HETATM   11  C15 UNL     1      28.184  -1.459  53.075  1.00  0.00     0.021 A 
HETATM   12  S1  UNL     1      25.664   0.059  52.843  1.00  0.00    -0.072 SA
ENDBRANCH   3   4
ENDBRANCH   2   3
BRANCH   1  13
HETATM   13  C6  UNL     1      24.395   4.351  49.632  1.00  0.00     0.065 C 
BRANCH  13  14
HETATM   14  C5  UNL     1      25.496   5.235  49.107  1.00  0.00    -0.058 A 
HETATM   15  C4  UNL     1      26.845   4.684  48.984  1.00  0.00     0.004 A 
HETATM   16  C3  UNL     1      27.603   5.654  48.508  1.00  0.00    -0.012 A 
HETATM   17  C2  UNL     1      26.830   6.899  48.285  1.00  0.00     0.071 A 
HETATM   18  C17 UNL     1      25.464   6.502  48.713  1.00  0.00    -0.006 A 
BRANCH  17  19
HETATM   19  C1  UNL     1      27.331   8.017  49.160  1.00  0.00     0.092 C 
HETATM   20  N1  UNL     1      26.766   8.042  50.326  1.00  0.00    -0.315 NA
HETATM   21  H1  UNL     1      26.049   7.368  50.628  1.00  0.00     0.185 HD
ENDBRANCH  17  19
ENDBRANCH  13  14
ENDBRANCH   1  13
TORSDOF 5
ENDMDL
MODEL 2
REMARK VINA RESULT:      -7.8      1.315      1.760
REMARK  5 active torsions:
REMARK  status: ('A' for Active; 'I' for Inactive)
REMARK    1  A    between atoms: C1_2  and  C2_3 
REMARK    2  A    between atoms: C5_6  and  C6_7 
REMARK    3  A    between atoms: C6_7  and  C7_8 
REMARK    4  A    between atoms: C8_9  and  C9_10 
REMARK    5  A    between atoms: C9_10  and  C10_11 
ROOT
HETATM    1  C7  UNL     1      24.263   2.525  50.818  1.00  0.00    -0.026 C 
HETATM    2  C8  UNL     1      23.697   1.713  51.684  1.00  0.00    -0.024 C 
ENDROOT
BRANCH   2   3
HETATM    3  C9  UNL     1      23.970   0.868  52.869  1.00  0.00     0.094 C 
BRANCH   3   4
HETATM    4  C10 UNL     1      25.307   0.385  53.025  1.00  0.00     0.080 A 
HETATM    5  N2  UNL     1      25.941  -0.814  52.834  1.00  0.00    -0.245 NA
HETATM    6  C11 UNL     1      27.240  -0.755  53.129  1.00  0.00     0.074 A 
HETATM    7  C12 UNL     1      27.994  -1.924  52.972  1.00  0.00     0.033 A 
HETATM    8  C16 UNL     1      27.983   0.367  53.594  1.00  0.00     0.035 A 
HETATM    9  C13 UNL     1      29.325  -1.936  53.254  1.00  0.00     0.002 A 
HETATM   10  C14 UNL     1      30.033  -0.843  53.704  1.00  0.00     0.002 A 
HETATM   11  C15 UNL     1      29.302   0.313  53.863  1.00  0.00     0.021 A 
HETATM   12  S1  UNL     1      26.648   1.584  53.640  1.00  0.00    -0.072 SA
ENDBRANCH   3   4
ENDBRANCH   2   3
BRANCH   1  13
HETATM   13  C6  UNL     1      23.715   3.294  49.642  1.00  0.00     0.065 C 
BRANCH  13  14
HETATM   14  C5  UNL     1      24.697   4.367  49.248  1.00  0.00    -0.058 A 
HETATM   15  C4  UNL     1      26.127   4.109  49.410  1.00  0.00     0.004 A 
HETATM   16  C3  UNL     1      26.752   5.196  48.997  1.00  0.00    -0.012 A 
HETATM   17  C2  UNL     1      25.803   6.237  48.538  1.00  0.00     0.071 A 
HETATM   18  C17 UNL     1      24.487   5.580  48.750  1.00  0.00    -0.006 A 
BRANCH  17  19
HETATM   19  C1  UNL     1      25.895   7.474  49.392  1.00  0.00     0.092 C 
HETATM   20  N1  UNL     1      27.062   7.633  49.932  1.00  0.00    -0.315 NA
HETATM   21  H1  UNL     1      27.849   6.985  49.794  1.00  0.00     0.185 HD
ENDBRANCH  17  19
ENDBRANCH  13  14
ENDBRANCH   1  13
TORSDOF 5
ENDMDL
MODEL 3
REMARK VINA RESULT:      -7.8      2.537      3.866
REMARK  5 active torsions:
REMARK  status: ('A' for Active; 'I' for Inactive)
REMARK    1  A    between atoms: C1_2  and  C2_3 
REMARK    2  A    between atoms: C5_6  and  C6_7 
REMARK    3  A    between atoms: C6_7  and  C7_8 
REMARK    4  A    between atoms: C8_9  and  C9_10 
REMARK    5  A    between atoms: C9_10  and  C10_11 
ROOT
HETATM    1  C7  UNL     1      26.694   3.702  49.662  1.00  0.00    -0.026 C 
HETATM    2  C8  UNL     1      26.296   2.958  50.672  1.00  0.00    -0.024 C 
ENDROOT
BRANCH   2   3
HETATM    3  C9  UNL     1      26.598   1.716  51.418  1.00  0.00     0.094 C 
BRANCH   3   4
HETATM    4  C10 UNL     1      25.536   1.149  52.189  1.00  0.00     0.080 A 
HETATM    5  N2  UNL     1      25.437   0.182  53.154  1.00  0.00    -0.245 NA
HETATM    6  C11 UNL     1      24.184   0.012  53.578  1.00  0.00     0.074 A 
HETATM    7  C12 UNL     1      23.959  -0.953  54.567  1.00  0.00     0.033 A 
HETATM    8  C16 UNL     1      23.013   0.697  53.147  1.00  0.00     0.035 A 
HETATM    9  C13 UNL     1      22.706  -1.180  55.046  1.00  0.00     0.002 A 
HETATM   10  C14 UNL     1      21.580  -0.509  54.620  1.00  0.00     0.002 A 
HETATM   11  C15 UNL     1      21.788   0.442  53.646  1.00  0.00     0.021 A 
HETATM   12  S1  UNL     1      23.766   1.791  51.922  1.00  0.00    -0.072 SA
ENDBRANCH   3   4
ENDBRANCH   2   3
BRANCH   1  13
HETATM   13  C6  UNL     1      26.171   4.995  49.087  1.00  0.00     0.065 C 
BRANCH  13  14
HETATM   14  C5  UNL     1      27.329   5.831  48.609  1.00  0.00    -0.058 A 
HETATM   15  C4  UNL     1      28.600   5.172  48.314  1.00  0.00     0.004 A 
HETATM   16  C3  UNL     1      29.430   6.120  47.920  1.00  0.00    -0.012 A 
HETATM   17  C2  UNL     1      28.785   7.454  47.924  1.00  0.00     0.071 A 
HETATM   18  C17 UNL     1      27.410   7.138  48.393  1.00  0.00    -0.006 A 
BRANCH  17  19
HETATM   19  C1  UNL     1      29.453   8.382  48.904  1.00  0.00     0.092 C 
HETATM   20  N1  UNL     1      28.622   8.926  49.736  1.00  0.00    -0.315 NA
HETATM   21  H1  UNL     1      27.609   8.746  49.733  1.00  0.00     0.185 HD
ENDBRANCH  17  19
ENDBRANCH  13  14
ENDBRANCH   1  13
TORSDOF 5
ENDMDL
MODEL 4
REMARK VINA RESULT:      -7.7      2.186      6.780
REMARK  5 active torsions:
REMARK  status: ('A' for Active; 'I' for Inactive)
REMARK    1  A    between atoms: C1_2  and  C2_3 
REMARK    2  A    between atoms: C5_6  and  C6_7 
REMARK    3  A    between atoms: C6_7  and  C7_8 
REMARK    4  A    between atoms: C8_9  and  C9_10 
REMARK    5  A    between atoms: C9_10  and  C10_11 
ROOT
HETATM    1  C7  UNL     1      23.566   0.676  52.657  1.00  0.00    -0.026 C 
HETATM    2  C8  UNL     1      23.683   1.986  52.678  1.00  0.00    -0.024 C 
ENDROOT
BRANCH   2   3
HETATM    3  C9  UNL     1      23.234   3.226  52.006  1.00  0.00     0.094 C 
BRANCH   3   4
HETATM    4  C10 UNL     1      24.193   3.906  51.193  1.00  0.00     0.080 A 
HETATM    5  N2  UNL     1      25.332   3.548  50.520  1.00  0.00    -0.245 NA
HETATM    6  C11 UNL     1      25.892   4.578  49.885  1.00  0.00     0.074 A 
HETATM    7  C12 UNL     1      27.065   4.334  49.160  1.00  0.00     0.033 A 
HETATM    8  C16 UNL     1      25.446   5.930  49.844  1.00  0.00     0.035 A 
HETATM    9  C13 UNL     1      27.690   5.338  48.489  1.00  0.00     0.002 A 
HETATM   10  C14 UNL     1      27.248   6.643  48.457  1.00  0.00     0.002 A 
HETATM   11  C15 UNL     1      26.096   6.896  49.167  1.00  0.00     0.021 A 
HETATM   12  S1  UNL     1      23.971   5.767  50.875  1.00  0.00    -0.072 SA
ENDBRANCH   3   4
ENDBRANCH   2   3
BRANCH   1  13
HETATM   13  C6  UNL     1      24.173  -0.411  53.509  1.00  0.00     0.065 C 
BRANCH  13  14
HETATM   14  C5  UNL     1      25.638  -0.126  53.708  1.00  0.00    -0.058 A 
HETATM   15  C4  UNL     1      26.148   0.030  55.070  1.00  0.00     0.004 A 
HETATM   16  C3  UNL     1      27.442   0.268  54.960  1.00  0.00    -0.012 A 
HETATM   17  C2  UNL     1      27.880   0.289  53.544  1.00  0.00     0.071 A 
HETATM   18  C17 UNL     1      26.612   0.018  52.818  1.00  0.00    -0.006 A 
BRANCH  17  19
HETATM   19  C1  UNL     1      28.407   1.645  53.155  1.00  0.00     0.092 C 
HETATM   20  N1  UNL     1      28.517   2.454  54.161  1.00  0.00    -0.315 NA
HETATM   21  H1  UNL     1      28.273   2.202  55.128  1.00  0.00     0.185 HD
ENDBRANCH  17  19
ENDBRANCH  13  14
ENDBRANCH   1  13
TORSDOF 5
ENDMDL
MODEL 5
REMARK VINA RESULT:      -7.7      2.787      4.186
REMARK  5 active torsions:
REMARK  status: ('A' for Active; 'I' for Inactive)
REMARK    1  A    between atoms: C1_2  and  C2_3 
REMARK    2  A    between atoms: C5_6  and  C6_7 
REMARK    3  A    between atoms: C6_7  and  C7_8 
REMARK    4  A    between atoms: C8_9  and  C9_10 
REMARK    5  A    between atoms: C9_10  and  C10_11 
ROOT
HETATM    1  C7  UNL     1      26.402   2.859  50.691  1.00  0.00    -0.026 C 
HETATM    2  C8  UNL     1      26.716   1.837  51.456  1.00  0.00    -0.024 C 
ENDROOT
BRANCH   2   3
HETATM    3  C9  UNL     1      26.508   1.258  52.804  1.00  0.00     0.094 C 
BRANCH   3   4
HETATM    4  C10 UNL     1      25.211   0.732  53.089  1.00  0.00     0.080 A 
HETATM    5  N2  UNL     1      23.940   0.966  52.633  1.00  0.00    -0.245 NA
HETATM    6  C11 UNL     1      23.034   0.191  53.232  1.00  0.00     0.074 A 
HETATM    7  C12 UNL     1      21.697   0.340  52.847  1.00  0.00     0.033 A 
HETATM    8  C16 UNL     1      23.251  -0.793  54.239  1.00  0.00     0.035 A 
HETATM    9  C13 UNL     1      20.720  -0.417  53.416  1.00  0.00     0.002 A 
HETATM   10  C14 UNL     1      20.943  -1.367  54.389  1.00  0.00     0.002 A 
HETATM   11  C15 UNL     1      22.255  -1.522  54.778  1.00  0.00     0.021 A 
HETATM   12  S1  UNL     1      25.043  -0.632  54.402  1.00  0.00    -0.072 SA
ENDBRANCH   3   4
ENDBRANCH   2   3
BRANCH   1  13
HETATM   13  C6  UNL     1      26.776   3.218  49.274  1.00  0.00     0.065 C 
BRANCH  13  14
HETATM   14  C5  UNL     1      26.585   4.698  49.069  1.00  0.00    -0.058 A 
HETATM   15  C4  UNL     1      27.693   5.484  48.530  1.00  0.00     0.004 A 
HETATM   16  C3  UNL     1      27.265   6.731  48.452  1.00  0.00    -0.012 A 
HETATM   17  C2  UNL     1      25.867   6.863  48.926  1.00  0.00     0.071 A 
HETATM   18  C17 UNL     1      25.528   5.467  49.304  1.00  0.00    -0.006 A 
BRANCH  17  19
HETATM   19  C1  UNL     1      25.783   7.751  50.139  1.00  0.00     0.092 C 
HETATM   20  N1  UNL     1      26.921   8.282  50.459  1.00  0.00    -0.315 NA
HETATM   21  H1  UNL     1      27.795   8.119  49.941  1.00  0.00     0.185 HD
ENDBRANCH  17  19
ENDBRANCH  13  14
ENDBRANCH   1  13
TORSDOF 5
ENDMDL
MODEL 6
REMARK VINA RESULT:      -7.6      2.624      7.270
REMARK  5 active torsions:
REMARK  status: ('A' for Active; 'I' for Inactive)
REMARK    1  A    between atoms: C1_2  and  C2_3 
REMARK    2  A    between atoms: C5_6  and  C6_7 
REMARK    3  A    between atoms: C6_7  and  C7_8 
REMARK    4  A    between atoms: C8_9  and  C9_10 
REMARK    5  A    between atoms: C9_10  and  C10_11 
ROOT
HETATM    1  C7  UNL     1      23.328   1.956  52.118  1.00  0.00    -0.026 C 
HETATM    2  C8  UNL     1      23.327   3.256  52.317  1.00  0.00    -0.024 C 
ENDROOT
BRANCH   2   3
HETATM    3  C9  UNL     1      23.229   4.560  51.623  1.00  0.00     0.094 C 
BRANCH   3   4
HETATM    4  C10 UNL     1      24.346   4.955  50.825  1.00  0.00     0.080 A 
HETATM    5  N2  UNL     1      25.416   4.314  50.257  1.00  0.00    -0.245 NA
HETATM    6  C11 UNL     1      26.209   5.148  49.583  1.00  0.00     0.074 A 
HETATM    7  C12 UNL     1      27.338   4.607  48.957  1.00  0.00     0.033 A 
HETATM    8  C16 UNL     1      26.056   6.553  49.408  1.00  0.00     0.035 A 
HETATM    9  C13 UNL     1      28.190   5.399  48.252  1.00  0.00     0.002 A 
HETATM   10  C14 UNL     1      28.032   6.758  48.091  1.00  0.00     0.002 A 
HETATM   11  C15 UNL     1      26.924   7.303  48.702  1.00  0.00     0.021 A 
HETATM   12  S1  UNL     1      24.532   6.787  50.349  1.00  0.00    -0.072 SA
ENDBRANCH   3   4
ENDBRANCH   2   3
BRANCH   1  13
HETATM   13  C6  UNL     1      23.452   0.785  53.061  1.00  0.00     0.065 C 
BRANCH  13  14
HETATM   14  C5  UNL     1      24.848   0.225  52.977  1.00  0.00    -0.058 A 
HETATM   15  C4  UNL     1      25.804   0.847  52.063  1.00  0.00     0.004 A 
HETATM   16  C3  UNL     1      26.932   0.172  52.184  1.00  0.00    -0.012 A 
HETATM   17  C2  UNL     1      26.811  -0.929  53.169  1.00  0.00     0.071 A 
HETATM   18  C17 UNL     1      25.402  -0.795  53.621  1.00  0.00    -0.006 A 
BRANCH  17  19
HETATM   19  C1  UNL     1      27.007  -2.271  52.515  1.00  0.00     0.092 C 
HETATM   20  N1  UNL     1      27.994  -2.943  53.019  1.00  0.00    -0.315 NA
HETATM   21  H1  UNL     1      28.586  -2.601  53.788  1.00  0.00     0.185 HD
ENDBRANCH  17  19
ENDBRANCH  13  14
ENDBRANCH   1  13
TORSDOF 5
ENDMDL
MODEL 7
REMARK VINA RESULT:      -7.4      3.477      4.273
REMARK  5 active torsions:
REMARK  status: ('A' for Active; 'I' for Inactive)
REMARK    1  A    between atoms: C1_2  and  C2_3 
REMARK    2  A    between atoms: C5_6  and  C6_7 
REMARK    3  A    between atoms: C6_7  and  C7_8 
REMARK    4  A    between atoms: C8_9  and  C9_10 
REMARK    5  A    between atoms: C9_10  and  C10_11 
ROOT
HETATM    1  C7  UNL     1      25.581   4.091  49.636  1.00  0.00    -0.026 C 
HETATM    2  C8  UNL     1      24.595   3.242  49.823  1.00  0.00    -0.024 C 
ENDROOT
BRANCH   2   3
HETATM    3  C9  UNL     1      23.198   3.136  50.303  1.00  0.00     0.094 C 
BRANCH   3   4
HETATM    4  C10 UNL     1      22.941   2.192  51.344  1.00  0.00     0.080 A 
HETATM    5  N2  UNL     1      21.831   1.768  52.026  1.00  0.00    -0.245 NA
HETATM    6  C11 UNL     1      22.118   0.835  52.935  1.00  0.00     0.074 A 
HETATM    7  C12 UNL     1      21.060   0.324  53.696  1.00  0.00     0.033 A 
HETATM    8  C16 UNL     1      23.390   0.275  53.243  1.00  0.00     0.035 A 
HETATM    9  C13 UNL     1      21.281  -0.630  54.642  1.00  0.00     0.002 A 
HETATM   10  C14 UNL     1      22.517  -1.164  54.931  1.00  0.00     0.002 A 
HETATM   11  C15 UNL     1      23.566  -0.669  54.189  1.00  0.00     0.021 A 
HETATM   12  S1  UNL     1      24.396   1.201  52.062  1.00  0.00    -0.072 SA
ENDBRANCH   3   4
ENDBRANCH   2   3
BRANCH   1  13
HETATM   13  C6  UNL     1      26.981   3.918  49.101  1.00  0.00     0.065 C 
BRANCH  13  14
HETATM   14  C5  UNL     1      27.503   5.251  48.631  1.00  0.00    -0.058 A 
HETATM   15  C4  UNL     1      28.910   5.364  48.252  1.00  0.00     0.004 A 
HETATM   16  C3  UNL     1      29.100   6.618  47.885  1.00  0.00    -0.012 A 
HETATM   17  C2  UNL     1      27.856   7.417  47.992  1.00  0.00     0.071 A 
HETATM   18  C17 UNL     1      26.879   6.414  48.490  1.00  0.00    -0.006 A 
BRANCH  17  19
HETATM   19  C1  UNL     1      28.003   8.525  49.000  1.00  0.00     0.092 C 
HETATM   20  N1  UNL     1      29.222   8.678  49.412  1.00  0.00    -0.315 NA
HETATM   21  H1  UNL     1      30.013   8.105  49.087  1.00  0.00     0.185 HD
ENDBRANCH  17  19
ENDBRANCH  13  14
ENDBRANCH   1  13
TORSDOF 5
ENDMDL
MODEL 8
REMARK VINA RESULT:      -7.2      3.046      4.421
REMARK  5 active torsions:
REMARK  status: ('A' for Active; 'I' for Inactive)
REMARK    1  A    between atoms: C1_2  and  C2_3 
REMARK    2  A    between atoms: C5_6  and  C6_7 
REMARK    3  A    between atoms: C6_7  and  C7_8 
REMARK    4  A    between atoms: C8_9  and  C9_10 
REMARK    5  A    between atoms: C9_10  and  C10_11 
ROOT
HETATM    1  C7  UNL     1      21.369   0.198  52.461  1.00  0.00    -0.026 C 
HETATM    2  C8  UNL     1      22.385  -0.558  52.813  1.00  0.00    -0.024 C 
ENDROOT
BRANCH   2   3
HETATM    3  C9  UNL     1      23.266  -0.903  53.952  1.00  0.00     0.094 C 
BRANCH   3   4
HETATM    4  C10 UNL     1      24.566  -0.310  53.968  1.00  0.00     0.080 A 
HETATM    5  N2  UNL     1      25.770  -0.610  54.550  1.00  0.00    -0.245 NA
HETATM    6  C11 UNL     1      26.715   0.283  54.252  1.00  0.00     0.074 A 
HETATM    7  C12 UNL     1      27.991   0.081  54.791  1.00  0.00     0.033 A 
HETATM    8  C16 UNL     1      26.597   1.445  53.437  1.00  0.00     0.035 A 
HETATM    9  C13 UNL     1      29.003   0.951  54.529  1.00  0.00     0.002 A 
HETATM   10  C14 UNL     1      28.876   2.073  53.739  1.00  0.00     0.002 A 
HETATM   11  C15 UNL     1      27.625   2.283  53.203  1.00  0.00     0.021 A 
HETATM   12  S1  UNL     1      24.854   1.294  52.988  1.00  0.00    -0.072 SA
ENDBRANCH   3   4
ENDBRANCH   2   3
BRANCH   1  13
HETATM   13  C6  UNL     1      20.628   0.360  51.156  1.00  0.00     0.065 C 
BRANCH  13  14
HETATM   14  C5  UNL     1      21.385   1.314  50.270  1.00  0.00    -0.058 A 
HETATM   15  C4  UNL     1      21.520   1.000  48.848  1.00  0.00     0.004 A 
HETATM   16  C3  UNL     1      22.217   1.984  48.312  1.00  0.00    -0.012 A 
HETATM   17  C2  UNL     1      22.590   3.007  49.318  1.00  0.00     0.071 A 
HETATM   18  C17 UNL     1      21.990   2.459  50.562  1.00  0.00    -0.006 A 
BRANCH  17  19
HETATM   19  C1  UNL     1      24.085   3.099  49.474  1.00  0.00     0.092 C 
HETATM   20  N1  UNL     1      24.478   4.243  49.937  1.00  0.00    -0.315 NA
HETATM   21  H1  UNL     1      23.839   5.014  50.176  1.00  0.00     0.185 HD
ENDBRANCH  17  19
ENDBRANCH  13  14
ENDBRANCH   1  13
TORSDOF 5
ENDMDL
MODEL 9
REMARK VINA RESULT:      -7.1      4.017      7.600
REMARK  5 active torsions:
REMARK  status: ('A' for Active; 'I' for Inactive)
REMARK    1  A    between atoms: C1_2  and  C2_3 
REMARK    2  A    between atoms: C5_6  and  C6_7 
REMARK    3  A    between atoms: C6_7  and  C7_8 
REMARK    4  A    between atoms: C8_9  and  C9_10 
REMARK    5  A    between atoms: C9_10  and  C10_11 
ROOT
HETATM    1  C7  UNL     1      25.664   2.047  53.243  1.00  0.00    -0.026 C 
HETATM    2  C8  UNL     1      25.287   2.155  51.988  1.00  0.00    -0.024 C 
ENDROOT
BRANCH   2   3
HETATM    3  C9  UNL     1      24.125   2.003  51.084  1.00  0.00     0.094 C 
BRANCH   3   4
HETATM    4  C10 UNL     1      22.987   1.311  51.603  1.00  0.00     0.080 A 
HETATM    5  N2  UNL     1      22.769   0.402  52.604  1.00  0.00    -0.245 NA
HETATM    6  C11 UNL     1      21.487   0.047  52.699  1.00  0.00     0.074 A 
HETATM    7  C12 UNL     1      21.142  -0.880  53.690  1.00  0.00     0.033 A 
HETATM    8  C16 UNL     1      20.393   0.496  51.906  1.00  0.00     0.035 A 
HETATM    9  C13 UNL     1      19.853  -1.287  53.843  1.00  0.00     0.002 A 
HETATM   10  C14 UNL     1      18.803  -0.845  53.069  1.00  0.00     0.002 A 
HETATM   11  C15 UNL     1      19.129   0.067  52.090  1.00  0.00     0.021 A 
HETATM   12  S1  UNL     1      21.285   1.625  50.815  1.00  0.00    -0.072 SA
ENDBRANCH   3   4
ENDBRANCH   2   3
BRANCH   1  13
HETATM   13  C6  UNL     1      26.989   2.277  53.928  1.00  0.00     0.065 C 
BRANCH  13  14
HETATM   14  C5  UNL     1      27.805   1.012  53.869  1.00  0.00    -0.058 A 
HETATM   15  C4  UNL     1      29.210   1.097  53.474  1.00  0.00     0.004 A 
HETATM   16  C3  UNL     1      29.683  -0.135  53.504  1.00  0.00    -0.012 A 
HETATM   17  C2  UNL     1      28.647  -1.113  53.913  1.00  0.00     0.071 A 
HETATM   18  C17 UNL     1      27.460  -0.244  54.125  1.00  0.00    -0.006 A 
BRANCH  17  19
HETATM   19  C1  UNL     1      28.363  -2.099  52.812  1.00  0.00     0.092 C 
HETATM   20  N1  UNL     1      28.593  -3.327  53.158  1.00  0.00    -0.315 NA
HETATM   21  H1  UNL     1      28.934  -3.605  54.089  1.00  0.00     0.185 HD
ENDBRANCH  17  19
ENDBRANCH  13  14
ENDBRANCH   1  13
TORSDOF 5
ENDMDL
