MODEL 1
REMARK VINA RESULT:      -9.0      0.000      0.000
REMARK  4 active torsions:
REMARK  status: ('A' for Active; 'I' for Inactive)
REMARK    1  A    between atoms: C12_14  and  N2_15 
REMARK       I    between atoms: N2_15  and  C13_16 
REMARK    2  A    between atoms: C13_16  and  C14_18 
REMARK    3  A    between atoms: C15_19  and  C16_20 
REMARK    4  A    between atoms: C16_20  and  N3_21 
ROOT
HETATM    1  C1  UNL     1      30.744  10.351  49.138  1.00  0.00     0.036 C 
HETATM    2  C2  UNL     1      29.504   9.513  48.782  1.00  0.00     0.102 C 
HETATM    3  C3  UNL     1      29.420   9.584  47.289  1.00  0.00    -0.004 C 
HETATM    4  C4  UNL     1      28.714   9.929  46.191  1.00  0.00    -0.003 C 
HETATM    5  C5  UNL     1      27.621  10.444  45.353  1.00  0.00     0.195 C 
HETATM    6  O1  UNL     1      26.503  10.916  45.989  1.00  0.00    -0.382 OA
HETATM    7  C6  UNL     1      25.656  10.071  46.581  1.00  0.00     0.227 C 
HETATM    8  C7  UNL     1      26.053   9.186  47.677  1.00  0.00     0.059 A 
HETATM    9  C8  UNL     1      25.699   9.688  48.937  1.00  0.00     0.029 A 
HETATM   10  C9  UNL     1      25.922   8.959  50.083  1.00  0.00     0.004 A 
HETATM   11  C10 UNL     1      26.514   7.731  49.819  1.00  0.00     0.034 A 
HETATM   12  C11 UNL     1      26.872   7.225  48.560  1.00  0.00     0.084 A 
HETATM   13  N1  UNL     1      26.626   7.987  47.488  1.00  0.00    -0.249 NA
HETATM   14  C12 UNL     1      27.467   5.890  48.583  1.00  0.00     0.065 C 
HETATM   15  C21 UNL     1      28.668   5.420  48.434  1.00  0.00     0.048 C 
HETATM   16  C22 UNL     1      30.008   5.889  48.180  1.00  0.00     0.029 A 
HETATM   17  C23 UNL     1      30.982   5.153  47.553  1.00  0.00     0.133 A 
HETATM   18  N4  UNL     1      32.228   5.612  47.358  1.00  0.00    -0.253 NA
HETATM   19  C24 UNL     1      32.544   6.843  47.789  1.00  0.00     0.234 A 
HETATM   20  N5  UNL     1      31.628   7.637  48.421  1.00  0.00    -0.224 NA
HETATM   21  C25 UNL     1      30.386   7.170  48.612  1.00  0.00     0.137 A 
HETATM   22  N6  UNL     1      29.636   8.169  49.247  1.00  0.00    -0.367 N 
HETATM   23  H30 UNL     1      29.358   7.533  50.009  1.00  0.00     0.161 HD
ENDROOT
BRANCH  14  24
HETATM   24  N2  UNL     1      26.356   5.076  48.855  1.00  0.00    -0.322 N 
HETATM   25  C13 UNL     1      26.209   3.955  49.714  1.00  0.00     0.245 C 
HETATM   26  O2  UNL     1      27.142   3.489  50.414  1.00  0.00    -0.268 OA
HETATM   27  H14 UNL     1      25.398   5.162  48.450  1.00  0.00     0.169 HD
BRANCH  25  28
HETATM   28  C14 UNL     1      25.025   3.145  49.962  1.00  0.00     0.072 C 
HETATM   29  C15 UNL     1      24.551   2.736  51.101  1.00  0.00     0.008 C 
BRANCH  29  30
HETATM   30  C16 UNL     1      23.333   1.915  51.205  1.00  0.00     0.300 C 
BRANCH  30  31
HETATM   31  N3  UNL     1      22.893   1.772  52.587  1.00  0.00     0.091 N 
HETATM   32  C17 UNL     1      21.504   1.337  52.661  1.00  0.00     0.273 C 
HETATM   33  C18 UNL     1      21.542  -0.143  52.457  1.00  0.00     0.032 C 
HETATM   34  C19 UNL     1      22.861  -0.543  53.079  1.00  0.00     0.032 C 
HETATM   35  C20 UNL     1      23.663   0.731  53.235  1.00  0.00     0.273 C 
ENDBRANCH  30  31
ENDBRANCH  29  30
ENDBRANCH  25  28
ENDBRANCH  14  24
TORSDOF 4
ENDMDL
MODEL 2
REMARK VINA RESULT:      -8.7      2.903      4.337
REMARK  4 active torsions:
REMARK  status: ('A' for Active; 'I' for Inactive)
REMARK    1  A    between atoms: C12_14  and  N2_15 
REMARK       I    between atoms: N2_15  and  C13_16 
REMARK    2  A    between atoms: C13_16  and  C14_18 
REMARK    3  A    between atoms: C15_19  and  C16_20 
REMARK    4  A    between atoms: C16_20  and  N3_21 
ROOT
HETATM    1  C1  UNL     1      35.415   7.124  48.581  1.00  0.00     0.036 C 
HETATM    2  C2  UNL     1      33.960   7.394  48.161  1.00  0.00     0.102 C 
HETATM    3  C3  UNL     1      34.015   7.507  46.670  1.00  0.00    -0.004 C 
HETATM    4  C4  UNL     1      33.801   8.250  45.563  1.00  0.00    -0.003 C 
HETATM    5  C5  UNL     1      33.417   9.386  44.711  1.00  0.00     0.195 C 
HETATM    6  O1  UNL     1      32.921  10.504  45.328  1.00  0.00    -0.382 OA
HETATM    7  C6  UNL     1      31.700  10.491  45.867  1.00  0.00     0.227 C 
HETATM    8  C7  UNL     1      31.317   9.579  46.946  1.00  0.00     0.059 A 
HETATM    9  C8  UNL     1      31.360  10.182  48.210  1.00  0.00     0.029 A 
HETATM   10  C9  UNL     1      30.960   9.502  49.338  1.00  0.00     0.004 A 
HETATM   11  C10 UNL     1      30.535   8.211  49.051  1.00  0.00     0.034 A 
HETATM   12  C11 UNL     1      30.492   7.603  47.789  1.00  0.00     0.084 A 
HETATM   13  N1  UNL     1      30.896   8.321  46.734  1.00  0.00    -0.249 NA
HETATM   14  C12 UNL     1      29.983   6.232  47.786  1.00  0.00     0.065 C 
HETATM   15  C21 UNL     1      30.518   5.056  47.656  1.00  0.00     0.048 C 
HETATM   16  C22 UNL     1      31.813   4.454  47.458  1.00  0.00     0.029 A 
HETATM   17  C23 UNL     1      32.021   3.248  46.836  1.00  0.00     0.133 A 
HETATM   18  N4  UNL     1      33.239   2.705  46.692  1.00  0.00    -0.253 NA
HETATM   19  C24 UNL     1      34.307   3.362  47.173  1.00  0.00     0.234 A 
HETATM   20  N5  UNL     1      34.180   4.568  47.803  1.00  0.00    -0.224 NA
HETATM   21  C25 UNL     1      32.960   5.104  47.942  1.00  0.00     0.137 A 
HETATM   22  N6  UNL     1      33.095   6.341  48.586  1.00  0.00    -0.367 N 
HETATM   23  H30 UNL     1      32.418   6.078  49.319  1.00  0.00     0.161 HD
ENDROOT
BRANCH  14  24
HETATM   24  N2  UNL     1      28.609   6.428  47.999  1.00  0.00    -0.322 N 
HETATM   25  C13 UNL     1      27.615   5.564  48.529  1.00  0.00     0.245 C 
HETATM   26  O2  UNL     1      27.848   4.393  48.918  1.00  0.00    -0.268 OA
HETATM   27  H14 UNL     1      28.055   7.288  47.791  1.00  0.00     0.169 HD
BRANCH  25  28
HETATM   28  C14 UNL     1      26.196   5.821  48.733  1.00  0.00     0.072 C 
HETATM   29  C15 UNL     1      25.357   5.171  49.483  1.00  0.00     0.008 C 
BRANCH  29  30
HETATM   30  C16 UNL     1      23.937   5.546  49.593  1.00  0.00     0.300 C 
BRANCH  30  31
HETATM   31  N3  UNL     1      23.567   5.862  50.967  1.00  0.00     0.091 N 
HETATM   32  C17 UNL     1      22.152   6.197  51.073  1.00  0.00     0.273 C 
HETATM   33  C18 UNL     1      21.439   4.884  51.120  1.00  0.00     0.032 C 
HETATM   34  C19 UNL     1      22.420   3.983  51.836  1.00  0.00     0.032 C 
HETATM   35  C20 UNL     1      23.756   4.694  51.801  1.00  0.00     0.273 C 
ENDBRANCH  30  31
ENDBRANCH  29  30
ENDBRANCH  25  28
ENDBRANCH  14  24
TORSDOF 4
ENDMDL
MODEL 3
REMARK VINA RESULT:      -8.6      1.345      1.485
REMARK  4 active torsions:
REMARK  status: ('A' for Active; 'I' for Inactive)
REMARK    1  A    between atoms: C12_14  and  N2_15 
REMARK       I    between atoms: N2_15  and  C13_16 
REMARK    2  A    between atoms: C13_16  and  C14_18 
REMARK    3  A    between atoms: C15_19  and  C16_20 
REMARK    4  A    between atoms: C16_20  and  N3_21 
ROOT
HETATM    1  C1  UNL     1      28.776  10.441  48.955  1.00  0.00     0.036 C 
HETATM    2  C2  UNL     1      27.768   9.296  48.762  1.00  0.00     0.102 C 
HETATM    3  C3  UNL     1      27.539   9.242  47.284  1.00  0.00    -0.004 C 
HETATM    4  C4  UNL     1      26.676   9.324  46.249  1.00  0.00    -0.003 C 
HETATM    5  C5  UNL     1      25.418   9.490  45.505  1.00  0.00     0.195 C 
HETATM    6  O1  UNL     1      24.276   9.707  46.229  1.00  0.00    -0.382 OA
HETATM    7  C6  UNL     1      23.729   8.719  46.939  1.00  0.00     0.227 C 
HETATM    8  C7  UNL     1      24.433   8.038  48.027  1.00  0.00     0.059 A 
HETATM    9  C8  UNL     1      24.073   8.519  49.294  1.00  0.00     0.029 A 
HETATM   10  C9  UNL     1      24.574   7.948  50.441  1.00  0.00     0.004 A 
HETATM   11  C10 UNL     1      25.436   6.893  50.172  1.00  0.00     0.034 A 
HETATM   12  C11 UNL     1      25.801   6.410  48.907  1.00  0.00     0.084 A 
HETATM   13  N1  UNL     1      25.277   7.011  47.833  1.00  0.00    -0.249 NA
HETATM   14  C12 UNL     1      26.719   5.273  48.927  1.00  0.00     0.065 C 
HETATM   15  C21 UNL     1      27.983   5.110  48.678  1.00  0.00     0.048 C 
HETATM   16  C22 UNL     1      29.131   5.882  48.270  1.00  0.00     0.029 A 
HETATM   17  C23 UNL     1      30.203   5.374  47.580  1.00  0.00     0.133 A 
HETATM   18  N4  UNL     1      31.267   6.117  47.240  1.00  0.00    -0.253 NA
HETATM   19  C24 UNL     1      31.293   7.415  47.584  1.00  0.00     0.234 A 
HETATM   20  N5  UNL     1      30.262   7.993  48.271  1.00  0.00    -0.224 NA
HETATM   21  C25 UNL     1      29.203   7.244  48.606  1.00  0.00     0.137 A 
HETATM   22  N6  UNL     1      28.279   8.063  49.269  1.00  0.00    -0.367 N 
HETATM   23  H30 UNL     1      28.242   7.430  50.082  1.00  0.00     0.161 HD
ENDROOT
BRANCH  14  24
HETATM   24  N2  UNL     1      25.882   4.225  49.346  1.00  0.00    -0.322 N 
HETATM   25  C13 UNL     1      26.060   3.230  50.342  1.00  0.00     0.245 C 
HETATM   26  O2  UNL     1      27.090   3.137  51.054  1.00  0.00    -0.268 OA
HETATM   27  H14 UNL     1      24.936   3.989  48.974  1.00  0.00     0.169 HD
BRANCH  25  28
HETATM   28  C14 UNL     1      25.152   2.164  50.739  1.00  0.00     0.072 C 
HETATM   29  C15 UNL     1      23.993   2.264  51.319  1.00  0.00     0.008 C 
BRANCH  29  30
HETATM   30  C16 UNL     1      23.176   1.090  51.667  1.00  0.00     0.300 C 
BRANCH  30  31
HETATM   31  N3  UNL     1      22.897   1.029  53.096  1.00  0.00     0.091 N 
HETATM   32  C17 UNL     1      21.463   1.038  53.359  1.00  0.00     0.273 C 
HETATM   33  C18 UNL     1      21.015  -0.373  53.152  1.00  0.00     0.032 C 
HETATM   34  C19 UNL     1      22.215  -1.184  53.585  1.00  0.00     0.032 C 
HETATM   35  C20 UNL     1      23.385  -0.224  53.631  1.00  0.00     0.273 C 
ENDBRANCH  30  31
ENDBRANCH  29  30
ENDBRANCH  25  28
ENDBRANCH  14  24
TORSDOF 4
ENDMDL
MODEL 4
REMARK VINA RESULT:      -8.4      2.527      3.504
REMARK  4 active torsions:
REMARK  status: ('A' for Active; 'I' for Inactive)
REMARK    1  A    between atoms: C12_14  and  N2_15 
REMARK       I    between atoms: N2_15  and  C13_16 
REMARK    2  A    between atoms: C13_16  and  C14_18 
REMARK    3  A    between atoms: C15_19  and  C16_20 
REMARK    4  A    between atoms: C16_20  and  N3_21 
ROOT
HETATM    1  C1  UNL     1      26.183   9.966  48.910  1.00  0.00     0.036 C 
HETATM    2  C2  UNL     1      25.400   8.648  48.789  1.00  0.00     0.102 C 
HETATM    3  C3  UNL     1      25.309   8.401  47.315  1.00  0.00    -0.004 C 
HETATM    4  C4  UNL     1      24.535   8.220  46.224  1.00  0.00    -0.003 C 
HETATM    5  C5  UNL     1      23.335   8.083  45.385  1.00  0.00     0.195 C 
HETATM    6  O1  UNL     1      22.116   8.172  46.002  1.00  0.00    -0.382 OA
HETATM    7  C6  UNL     1      21.683   7.183  46.787  1.00  0.00     0.227 C 
HETATM    8  C7  UNL     1      22.397   6.755  47.992  1.00  0.00     0.059 A 
HETATM    9  C8  UNL     1      21.855   7.296  49.166  1.00  0.00     0.029 A 
HETATM   10  C9  UNL     1      22.347   6.945  50.404  1.00  0.00     0.004 A 
HETATM   11  C10 UNL     1      23.392   6.036  50.318  1.00  0.00     0.034 A 
HETATM   12  C11 UNL     1      23.939   5.494  49.145  1.00  0.00     0.084 A 
HETATM   13  N1  UNL     1      23.414   5.877  47.975  1.00  0.00    -0.249 NA
HETATM   14  C12 UNL     1      25.029   4.544  49.360  1.00  0.00     0.065 C 
HETATM   15  C21 UNL     1      26.318   4.581  49.214  1.00  0.00     0.048 C 
HETATM   16  C22 UNL     1      27.351   5.495  48.794  1.00  0.00     0.029 A 
HETATM   17  C23 UNL     1      28.548   5.113  48.240  1.00  0.00     0.133 A 
HETATM   18  N4  UNL     1      29.497   5.991  47.884  1.00  0.00    -0.253 NA
HETATM   19  C24 UNL     1      29.277   7.302  48.073  1.00  0.00     0.234 A 
HETATM   20  N5  UNL     1      28.109   7.760  48.618  1.00  0.00    -0.224 NA
HETATM   21  C25 UNL     1      27.166   6.876  48.970  1.00  0.00     0.137 A 
HETATM   22  N6  UNL     1      26.066   7.585  49.470  1.00  0.00    -0.367 N 
HETATM   23  H30 UNL     1      26.066   7.044  50.348  1.00  0.00     0.161 HD
ENDROOT
BRANCH  14  24
HETATM   24  N2  UNL     1      24.346   3.416  49.843  1.00  0.00    -0.322 N 
HETATM   25  C13 UNL     1      24.440   2.729  51.082  1.00  0.00     0.245 C 
HETATM   26  O2  UNL     1      25.222   3.065  52.005  1.00  0.00    -0.268 OA
HETATM   27  H14 UNL     1      23.614   2.862  49.346  1.00  0.00     0.169 HD
BRANCH  25  28
HETATM   28  C14 UNL     1      23.700   1.559  51.535  1.00  0.00     0.072 C 
HETATM   29  C15 UNL     1      23.717   0.997  52.707  1.00  0.00     0.008 C 
BRANCH  29  30
HETATM   30  C16 UNL     1      22.911  -0.192  53.028  1.00  0.00     0.300 C 
BRANCH  30  31
HETATM   31  N3  UNL     1      22.042   0.036  54.174  1.00  0.00     0.091 N 
HETATM   32  C17 UNL     1      20.792   0.673  53.776  1.00  0.00     0.273 C 
HETATM   33  C18 UNL     1      19.929  -0.436  53.268  1.00  0.00     0.032 C 
HETATM   34  C19 UNL     1      20.349  -1.616  54.114  1.00  0.00     0.032 C 
HETATM   35  C20 UNL     1      21.665  -1.233  54.758  1.00  0.00     0.273 C 
ENDBRANCH  30  31
ENDBRANCH  29  30
ENDBRANCH  25  28
ENDBRANCH  14  24
TORSDOF 4
ENDMDL
MODEL 5
REMARK VINA RESULT:      -8.3      6.475     10.033
REMARK  4 active torsions:
REMARK  status: ('A' for Active; 'I' for Inactive)
REMARK    1  A    between atoms: C12_14  and  N2_15 
REMARK       I    between atoms: N2_15  and  C13_16 
REMARK    2  A    between atoms: C13_16  and  C14_18 
REMARK    3  A    between atoms: C15_19  and  C16_20 
REMARK    4  A    between atoms: C16_20  and  N3_21 
ROOT
HETATM    1  C1  UNL     1      17.622   3.263  47.058  1.00  0.00     0.036 C 
HETATM    2  C2  UNL     1      18.822   3.129  48.010  1.00  0.00     0.102 C 
HETATM    3  C3  UNL     1      18.644   4.239  48.997  1.00  0.00    -0.004 C 
HETATM    4  C4  UNL     1      19.130   5.362  49.568  1.00  0.00    -0.003 C 
HETATM    5  C5  UNL     1      20.035   6.482  49.869  1.00  0.00     0.195 C 
HETATM    6  O1  UNL     1      21.220   6.542  49.185  1.00  0.00    -0.382 OA
HETATM    7  C6  UNL     1      22.198   5.675  49.454  1.00  0.00     0.227 C 
HETATM    8  C7  UNL     1      22.043   4.228  49.297  1.00  0.00     0.059 A 
HETATM    9  C8  UNL     1      22.583   3.749  48.096  1.00  0.00     0.029 A 
HETATM   10  C9  UNL     1      22.599   2.403  47.809  1.00  0.00     0.004 A 
HETATM   11  C10 UNL     1      22.035   1.641  48.823  1.00  0.00     0.034 A 
HETATM   12  C11 UNL     1      21.491   2.116  50.026  1.00  0.00     0.084 A 
HETATM   13  N1  UNL     1      21.508   3.437  50.241  1.00  0.00    -0.249 NA
HETATM   14  C12 UNL     1      20.978   1.078  50.918  1.00  0.00     0.065 C 
HETATM   15  C21 UNL     1      19.795   0.665  51.258  1.00  0.00     0.048 C 
HETATM   16  C22 UNL     1      18.409   0.954  50.984  1.00  0.00     0.029 A 
HETATM   17  C23 UNL     1      17.380   0.727  51.864  1.00  0.00     0.133 A 
HETATM   18  N4  UNL     1      16.098   0.984  51.565  1.00  0.00    -0.253 NA
HETATM   19  C24 UNL     1      15.798   1.486  50.357  1.00  0.00     0.234 A 
HETATM   20  N5  UNL     1      16.768   1.740  49.427  1.00  0.00    -0.224 NA
HETATM   21  C25 UNL     1      18.046   1.480  49.734  1.00  0.00     0.137 A 
HETATM   22  N6  UNL     1      18.843   1.849  48.642  1.00  0.00    -0.367 N 
HETATM   23  H30 UNL     1      19.280   0.916  48.595  1.00  0.00     0.161 HD
ENDROOT
BRANCH  14  24
HETATM   24  N2  UNL     1      22.160   0.499  51.407  1.00  0.00    -0.322 N 
HETATM   25  C13 UNL     1      22.638   0.333  52.734  1.00  0.00     0.245 C 
HETATM   26  O2  UNL     1      22.011   0.720  53.751  1.00  0.00    -0.268 OA
HETATM   27  H14 UNL     1      22.929   0.068  50.848  1.00  0.00     0.169 HD
BRANCH  25  28
HETATM   28  C14 UNL     1      23.877  -0.282  53.187  1.00  0.00     0.072 C 
HETATM   29  C15 UNL     1      25.072   0.230  53.212  1.00  0.00     0.008 C 
BRANCH  29  30
HETATM   30  C16 UNL     1      26.244  -0.514  53.701  1.00  0.00     0.300 C 
BRANCH  30  31
HETATM   31  N3  UNL     1      27.399  -0.335  52.832  1.00  0.00     0.091 N 
HETATM   32  C17 UNL     1      28.001   0.980  53.010  1.00  0.00     0.273 C 
HETATM   33  C18 UNL     1      28.861   0.859  54.227  1.00  0.00     0.032 C 
HETATM   34  C19 UNL     1      29.333  -0.576  54.175  1.00  0.00     0.032 C 
HETATM   35  C20 UNL     1      28.428  -1.288  53.192  1.00  0.00     0.273 C 
ENDBRANCH  30  31
ENDBRANCH  29  30
ENDBRANCH  25  28
ENDBRANCH  14  24
TORSDOF 4
ENDMDL
MODEL 6
REMARK VINA RESULT:      -8.3      2.656      4.965
REMARK  4 active torsions:
REMARK  status: ('A' for Active; 'I' for Inactive)
REMARK    1  A    between atoms: C12_14  and  N2_15 
REMARK       I    between atoms: N2_15  and  C13_16 
REMARK    2  A    between atoms: C13_16  and  C14_18 
REMARK    3  A    between atoms: C15_19  and  C16_20 
REMARK    4  A    between atoms: C16_20  and  N3_21 
ROOT
HETATM    1  C1  UNL     1      27.633   9.727  44.389  1.00  0.00     0.036 C 
HETATM    2  C2  UNL     1      27.690   9.115  45.798  1.00  0.00     0.102 C 
HETATM    3  C3  UNL     1      27.542  10.284  46.721  1.00  0.00    -0.004 C 
HETATM    4  C4  UNL     1      28.054  11.035  47.720  1.00  0.00    -0.003 C 
HETATM    5  C5  UNL     1      28.981  11.513  48.756  1.00  0.00     0.195 C 
HETATM    6  O1  UNL     1      30.141  10.810  48.945  1.00  0.00    -0.382 OA
HETATM    7  C6  UNL     1      30.114   9.606  49.520  1.00  0.00     0.227 C 
HETATM    8  C7  UNL     1      29.376   8.473  48.958  1.00  0.00     0.059 A 
HETATM    9  C8  UNL     1      30.195   7.593  48.237  1.00  0.00     0.029 A 
HETATM   10  C9  UNL     1      29.692   6.430  47.700  1.00  0.00     0.004 A 
HETATM   11  C10 UNL     1      28.338   6.271  47.963  1.00  0.00     0.034 A 
HETATM   12  C11 UNL     1      27.514   7.149  48.682  1.00  0.00     0.084 A 
HETATM   13  N1  UNL     1      28.068   8.262  49.177  1.00  0.00    -0.249 NA
HETATM   14  C12 UNL     1      26.124   6.715  48.815  1.00  0.00     0.065 C 
HETATM   15  C21 UNL     1      24.997   7.072  48.277  1.00  0.00     0.048 C 
HETATM   16  C22 UNL     1      24.490   8.021  47.318  1.00  0.00     0.029 A 
HETATM   17  C23 UNL     1      23.216   8.534  47.332  1.00  0.00     0.133 A 
HETATM   18  N4  UNL     1      22.769   9.396  46.407  1.00  0.00    -0.253 NA
HETATM   19  C24 UNL     1      23.596   9.780  45.420  1.00  0.00     0.234 A 
HETATM   20  N5  UNL     1      24.878   9.314  45.339  1.00  0.00    -0.224 NA
HETATM   21  C25 UNL     1      25.316   8.454  46.268  1.00  0.00     0.137 A 
HETATM   22  N6  UNL     1      26.655   8.150  45.987  1.00  0.00    -0.367 N 
HETATM   23  H30 UNL     1      26.466   7.136  45.984  1.00  0.00     0.161 HD
ENDROOT
BRANCH  14  24
HETATM   24  N2  UNL     1      26.229   5.672  49.750  1.00  0.00    -0.322 N 
HETATM   25  C13 UNL     1      25.556   4.425  49.835  1.00  0.00     0.245 C 
HETATM   26  O2  UNL     1      24.690   4.045  49.009  1.00  0.00    -0.268 OA
HETATM   27  H14 UNL     1      26.853   5.637  50.586  1.00  0.00     0.169 HD
BRANCH  25  28
HETATM   28  C14 UNL     1      25.707   3.374  50.831  1.00  0.00     0.072 C 
HETATM   29  C15 UNL     1      26.630   2.462  50.909  1.00  0.00     0.008 C 
BRANCH  29  30
HETATM   30  C16 UNL     1      26.659   1.451  51.979  1.00  0.00     0.300 C 
BRANCH  30  31
HETATM   31  N3  UNL     1      26.947   2.047  53.278  1.00  0.00     0.091 N 
HETATM   32  C17 UNL     1      26.579   1.151  54.368  1.00  0.00     0.273 C 
HETATM   33  C18 UNL     1      27.717   0.190  54.490  1.00  0.00     0.032 C 
HETATM   34  C19 UNL     1      28.916   1.024  54.099  1.00  0.00     0.032 C 
HETATM   35  C20 UNL     1      28.373   2.257  53.409  1.00  0.00     0.273 C 
ENDBRANCH  30  31
ENDBRANCH  29  30
ENDBRANCH  25  28
ENDBRANCH  14  24
TORSDOF 4
ENDMDL
MODEL 7
REMARK VINA RESULT:      -8.3      3.357      4.485
REMARK  4 active torsions:
REMARK  status: ('A' for Active; 'I' for Inactive)
REMARK    1  A    between atoms: C12_14  and  N2_15 
REMARK       I    between atoms: N2_15  and  C13_16 
REMARK    2  A    between atoms: C13_16  and  C14_18 
REMARK    3  A    between atoms: C15_19  and  C16_20 
REMARK    4  A    between atoms: C16_20  and  N3_21 
ROOT
HETATM    1  C1  UNL     1      24.945  10.968  47.564  1.00  0.00     0.036 C 
HETATM    2  C2  UNL     1      24.713   9.501  47.962  1.00  0.00     0.102 C 
HETATM    3  C3  UNL     1      24.422   8.804  46.670  1.00  0.00    -0.004 C 
HETATM    4  C4  UNL     1      23.567   8.071  45.924  1.00  0.00    -0.003 C 
HETATM    5  C5  UNL     1      22.364   7.321  45.533  1.00  0.00     0.195 C 
HETATM    6  O1  UNL     1      21.358   7.210  46.456  1.00  0.00    -0.382 OA
HETATM    7  C6  UNL     1      21.505   6.422  47.523  1.00  0.00     0.227 C 
HETATM    8  C7  UNL     1      22.559   6.622  48.519  1.00  0.00     0.059 A 
HETATM    9  C8  UNL     1      22.108   7.296  49.661  1.00  0.00     0.029 A 
HETATM   10  C9  UNL     1      22.939   7.507  50.739  1.00  0.00     0.004 A 
HETATM   11  C10 UNL     1      24.209   6.986  50.534  1.00  0.00     0.034 A 
HETATM   12  C11 UNL     1      24.666   6.312  49.392  1.00  0.00     0.084 A 
HETATM   13  N1  UNL     1      23.806   6.141  48.381  1.00  0.00    -0.249 NA
HETATM   14  C12 UNL     1      26.054   5.859  49.462  1.00  0.00     0.065 C 
HETATM   15  C21 UNL     1      27.173   6.248  48.931  1.00  0.00     0.048 C 
HETATM   16  C22 UNL     1      27.671   7.265  48.039  1.00  0.00     0.029 A 
HETATM   17  C23 UNL     1      28.781   7.125  47.244  1.00  0.00     0.133 A 
HETATM   18  N4  UNL     1      29.231   8.103  46.444  1.00  0.00    -0.253 NA
HETATM   19  C24 UNL     1      28.573   9.274  46.412  1.00  0.00     0.234 A 
HETATM   20  N5  UNL     1      27.459   9.489  47.174  1.00  0.00    -0.224 NA
HETATM   21  C25 UNL     1      27.016   8.506  47.970  1.00  0.00     0.137 A 
HETATM   22  N6  UNL     1      25.858   8.955  48.618  1.00  0.00    -0.367 N 
HETATM   23  H30 UNL     1      26.244   8.733  49.548  1.00  0.00     0.161 HD
ENDROOT
BRANCH  14  24
HETATM   24  N2  UNL     1      25.966   4.777  50.353  1.00  0.00    -0.322 N 
HETATM   25  C13 UNL     1      26.372   3.423  50.220  1.00  0.00     0.245 C 
HETATM   26  O2  UNL     1      26.917   2.960  49.187  1.00  0.00    -0.268 OA
HETATM   27  H14 UNL     1      25.565   4.786  51.317  1.00  0.00     0.169 HD
BRANCH  25  28
HETATM   28  C14 UNL     1      26.260   2.338  51.183  1.00  0.00     0.072 C 
HETATM   29  C15 UNL     1      27.112   1.976  52.096  1.00  0.00     0.008 C 
BRANCH  29  30
HETATM   30  C16 UNL     1      26.865   0.848  53.009  1.00  0.00     0.300 C 
BRANCH  30  31
HETATM   31  N3  UNL     1      27.701   0.924  54.200  1.00  0.00     0.091 N 
HETATM   32  C17 UNL     1      28.032  -0.404  54.703  1.00  0.00     0.273 C 
HETATM   33  C18 UNL     1      29.174  -0.872  53.860  1.00  0.00     0.032 C 
HETATM   34  C19 UNL     1      29.914   0.407  53.540  1.00  0.00     0.032 C 
HETATM   35  C20 UNL     1      28.966   1.542  53.866  1.00  0.00     0.273 C 
ENDBRANCH  30  31
ENDBRANCH  29  30
ENDBRANCH  25  28
ENDBRANCH  14  24
TORSDOF 4
ENDMDL
MODEL 8
REMARK VINA RESULT:      -8.1      7.421     10.863
REMARK  4 active torsions:
REMARK  status: ('A' for Active; 'I' for Inactive)
REMARK    1  A    between atoms: C12_14  and  N2_15 
REMARK       I    between atoms: N2_15  and  C13_16 
REMARK    2  A    between atoms: C13_16  and  C14_18 
REMARK    3  A    between atoms: C15_19  and  C16_20 
REMARK    4  A    between atoms: C16_20  and  N3_21 
ROOT
HETATM    1  C1  UNL     1      16.308   1.109  48.761  1.00  0.00     0.036 C 
HETATM    2  C2  UNL     1      17.697   1.494  49.297  1.00  0.00     0.102 C 
HETATM    3  C3  UNL     1      17.427   2.575  50.296  1.00  0.00    -0.004 C 
HETATM    4  C4  UNL     1      17.624   3.850  50.694  1.00  0.00    -0.003 C 
HETATM    5  C5  UNL     1      18.115   5.236  50.707  1.00  0.00     0.195 C 
HETATM    6  O1  UNL     1      18.949   5.624  49.692  1.00  0.00    -0.382 OA
HETATM    7  C6  UNL     1      20.205   5.176  49.643  1.00  0.00     0.227 C 
HETATM    8  C7  UNL     1      20.538   3.754  49.535  1.00  0.00     0.059 A 
HETATM    9  C8  UNL     1      20.842   3.364  48.224  1.00  0.00     0.029 A 
HETATM   10  C9  UNL     1      21.254   2.081  47.941  1.00  0.00     0.004 A 
HETATM   11  C10 UNL     1      21.317   1.285  49.077  1.00  0.00     0.034 A 
HETATM   12  C11 UNL     1      21.012   1.671  50.390  1.00  0.00     0.084 A 
HETATM   13  N1  UNL     1      20.618   2.933  50.595  1.00  0.00    -0.249 NA
HETATM   14  C12 UNL     1      21.184   0.621  51.393  1.00  0.00     0.065 C 
HETATM   15  C21 UNL     1      20.378  -0.132  52.078  1.00  0.00     0.048 C 
HETATM   16  C22 UNL     1      18.965  -0.363  52.245  1.00  0.00     0.029 A 
HETATM   17  C23 UNL     1      18.386  -0.832  53.398  1.00  0.00     0.133 A 
HETATM   18  N4  UNL     1      17.069  -1.060  53.509  1.00  0.00    -0.253 NA
HETATM   19  C24 UNL     1      16.274  -0.822  52.453  1.00  0.00     0.234 A 
HETATM   20  N5  UNL     1      16.777  -0.353  51.272  1.00  0.00    -0.224 NA
HETATM   21  C25 UNL     1      18.093  -0.128  51.170  1.00  0.00     0.137 A 
HETATM   22  N6  UNL     1      18.354   0.372  49.887  1.00  0.00    -0.367 N 
HETATM   23  H30 UNL     1      19.062  -0.355  49.704  1.00  0.00     0.161 HD
ENDROOT
BRANCH  14  24
HETATM   24  N2  UNL     1      22.582   0.534  51.492  1.00  0.00    -0.322 N 
HETATM   25  C13 UNL     1      23.512   1.292  52.252  1.00  0.00     0.245 C 
HETATM   26  O2  UNL     1      23.182   2.237  53.011  1.00  0.00    -0.268 OA
HETATM   27  H14 UNL     1      23.208  -0.139  50.998  1.00  0.00     0.169 HD
BRANCH  25  28
HETATM   28  C14 UNL     1      24.959   1.156  52.321  1.00  0.00     0.072 C 
HETATM   29  C15 UNL     1      25.670   0.067  52.316  1.00  0.00     0.008 C 
BRANCH  29  30
HETATM   30  C16 UNL     1      27.140   0.079  52.393  1.00  0.00     0.300 C 
BRANCH  30  31
HETATM   31  N3  UNL     1      27.624  -0.579  53.599  1.00  0.00     0.091 N 
HETATM   32  C17 UNL     1      28.913  -1.223  53.374  1.00  0.00     0.273 C 
HETATM   33  C18 UNL     1      29.925  -0.130  53.493  1.00  0.00     0.032 C 
HETATM   34  C19 UNL     1      29.315   0.796  54.521  1.00  0.00     0.032 C 
HETATM   35  C20 UNL     1      27.856   0.409  54.631  1.00  0.00     0.273 C 
ENDBRANCH  30  31
ENDBRANCH  29  30
ENDBRANCH  25  28
ENDBRANCH  14  24
TORSDOF 4
ENDMDL
MODEL 9
REMARK VINA RESULT:      -7.9      4.824      9.037
REMARK  4 active torsions:
REMARK  status: ('A' for Active; 'I' for Inactive)
REMARK    1  A    between atoms: C12_14  and  N2_15 
REMARK       I    between atoms: N2_15  and  C13_16 
REMARK    2  A    between atoms: C13_16  and  C14_18 
REMARK    3  A    between atoms: C15_19  and  C16_20 
REMARK    4  A    between atoms: C16_20  and  N3_21 
ROOT
HETATM    1  C1  UNL     1      26.051   3.073  49.330  1.00  0.00     0.036 C 
HETATM    2  C2  UNL     1      24.729   2.950  50.107  1.00  0.00     0.102 C 
HETATM    3  C3  UNL     1      25.126   3.077  51.544  1.00  0.00    -0.004 C 
HETATM    4  C4  UNL     1      25.163   2.535  52.781  1.00  0.00    -0.003 C 
HETATM    5  C5  UNL     1      24.972   1.573  53.877  1.00  0.00     0.195 C 
HETATM    6  O1  UNL     1      24.333   0.398  53.586  1.00  0.00    -0.382 OA
HETATM    7  C6  UNL     1      23.021   0.385  53.342  1.00  0.00     0.227 C 
HETATM    8  C7  UNL     1      22.411   1.129  52.239  1.00  0.00     0.059 A 
HETATM    9  C8  UNL     1      22.153   0.328  51.118  1.00  0.00     0.029 A 
HETATM   10  C9  UNL     1      21.511   0.836  50.011  1.00  0.00     0.004 A 
HETATM   11  C10 UNL     1      21.181   2.176  50.163  1.00  0.00     0.034 A 
HETATM   12  C11 UNL     1      21.438   2.983  51.282  1.00  0.00     0.084 A 
HETATM   13  N1  UNL     1      22.066   2.424  52.324  1.00  0.00    -0.249 NA
HETATM   14  C12 UNL     1      20.961   4.359  51.167  1.00  0.00     0.065 C 
HETATM   15  C21 UNL     1      21.526   5.512  50.971  1.00  0.00     0.048 C 
HETATM   16  C22 UNL     1      22.839   6.071  50.767  1.00  0.00     0.029 A 
HETATM   17  C23 UNL     1      23.201   7.350  51.113  1.00  0.00     0.133 A 
HETATM   18  N4  UNL     1      24.426   7.846  50.884  1.00  0.00    -0.253 NA
HETATM   19  C24 UNL     1      25.346   7.065  50.294  1.00  0.00     0.234 A 
HETATM   20  N5  UNL     1      25.061   5.781  49.922  1.00  0.00    -0.224 NA
HETATM   21  C25 UNL     1      23.836   5.294  50.155  1.00  0.00     0.137 A 
HETATM   22  N6  UNL     1      23.802   3.963  49.716  1.00  0.00    -0.367 N 
HETATM   23  H30 UNL     1      22.978   4.138  49.121  1.00  0.00     0.161 HD
ENDROOT
BRANCH  14  24
HETATM   24  N2  UNL     1      19.572   4.203  51.306  1.00  0.00    -0.322 N 
HETATM   25  C13 UNL     1      18.514   4.403  50.381  1.00  0.00     0.245 C 
HETATM   26  O2  UNL     1      18.689   4.785  49.197  1.00  0.00    -0.268 OA
HETATM   27  H14 UNL     1      19.055   3.897  52.159  1.00  0.00     0.169 HD
BRANCH  25  28
HETATM   28  C14 UNL     1      17.083   4.220  50.578  1.00  0.00     0.072 C 
HETATM   29  C15 UNL     1      16.426   4.135  51.696  1.00  0.00     0.008 C 
BRANCH  29  30
HETATM   30  C16 UNL     1      14.967   3.949  51.747  1.00  0.00     0.300 C 
BRANCH  30  31
HETATM   31  N3  UNL     1      14.532   3.425  53.035  1.00  0.00     0.091 N 
HETATM   32  C17 UNL     1      13.941   4.468  53.863  1.00  0.00     0.273 C 
HETATM   33  C18 UNL     1      12.533   4.606  53.378  1.00  0.00     0.032 C 
HETATM   34  C19 UNL     1      12.178   3.202  52.946  1.00  0.00     0.032 C 
HETATM   35  C20 UNL     1      13.485   2.446  52.832  1.00  0.00     0.273 C 
ENDBRANCH  30  31
ENDBRANCH  29  30
ENDBRANCH  25  28
ENDBRANCH  14  24
TORSDOF 4
ENDMDL
