MODEL 1
REMARK VINA RESULT:      -8.5      0.000      0.000
REMARK  4 active torsions:
REMARK  status: ('A' for Active; 'I' for Inactive)
REMARK    1  A    between atoms: O1_1  and  C1_2 
REMARK    2  A    between atoms: C4_5  and  C5_6 
REMARK    3  A    between atoms: N2_13  and  C11_14 
REMARK    4  A    between atoms: C11_14  and  C12_15 
ROOT
HETATM    1  C5  UNL     1      26.446   1.385  52.298  1.00  0.00     0.042 C 
HETATM    2  C6  UNL     1      26.207   1.960  51.121  1.00  0.00     0.036 C 
HETATM    3  C7  UNL     1      25.421   3.143  51.474  1.00  0.00     0.179 C 
HETATM    4  C8  UNL     1      24.800   2.850  52.757  1.00  0.00     0.131 C 
HETATM    5  N1  UNL     1      23.649   3.361  53.077  1.00  0.00    -0.244 NA
HETATM    6  C9  UNL     1      22.929   4.204  52.167  1.00  0.00     0.135 C 
HETATM    7  C10 UNL     1      23.462   4.433  50.953  1.00  0.00     0.106 C 
HETATM    8  N2  UNL     1      24.703   3.864  50.514  1.00  0.00    -0.369 N 
HETATM    9  N3  UNL     1      25.632   1.881  53.396  1.00  0.00    -0.342 N 
HETATM   10  H13 UNL     1      25.584   1.661  54.409  1.00  0.00     0.167 HD
ENDROOT
BRANCH   1  11
HETATM   11  C4  UNL     1      27.214   0.161  52.645  1.00  0.00    -0.009 A 
HETATM   12  C3  UNL     1      28.438   0.064  53.270  1.00  0.00     0.016 A 
HETATM   13  C2  UNL     1      28.995  -1.171  53.509  1.00  0.00     0.037 A 
HETATM   14  C1  UNL     1      28.367  -2.361  53.139  1.00  0.00     0.065 A 
HETATM   15  C18 UNL     1      27.143  -2.260  52.514  1.00  0.00     0.037 A 
HETATM   16  C17 UNL     1      26.572  -1.026  52.268  1.00  0.00     0.016 A 
BRANCH  14  17
HETATM   17  O1  UNL     1      29.055  -3.527  53.448  1.00  0.00    -0.361 OA
HETATM   18  H1  UNL     1      29.341  -4.174  52.739  1.00  0.00     0.217 HD
ENDBRANCH  14  17
ENDBRANCH   1  11
BRANCH   8  19
HETATM   19  C11 UNL     1      25.133   4.054  49.152  1.00  0.00     0.162 C 
BRANCH  19  20
HETATM   20  C12 UNL     1      26.381   4.856  49.062  1.00  0.00    -0.029 C 
HETATM   21  C13 UNL     1      27.693   4.780  48.904  1.00  0.00    -0.017 C 
HETATM   22  C14 UNL     1      28.173   5.764  48.162  1.00  0.00     0.013 C 
HETATM   23  C15 UNL     1      27.330   6.885  48.629  1.00  0.00     0.002 C 
HETATM   24  C16 UNL     1      26.239   6.324  49.176  1.00  0.00     0.010 C 
ENDBRANCH  19  20
ENDBRANCH   8  19
TORSDOF 4
ENDMDL
MODEL 2
REMARK VINA RESULT:      -8.3      3.903      6.569
REMARK  4 active torsions:
REMARK  status: ('A' for Active; 'I' for Inactive)
REMARK    1  A    between atoms: O1_1  and  C1_2 
REMARK    2  A    between atoms: C4_5  and  C5_6 
REMARK    3  A    between atoms: N2_13  and  C11_14 
REMARK    4  A    between atoms: C11_14  and  C12_15 
ROOT
HETATM    1  C5  UNL     1      22.963   0.893  52.995  1.00  0.00     0.042 C 
HETATM    2  C6  UNL     1      24.157   0.634  53.522  1.00  0.00     0.036 C 
HETATM    3  C7  UNL     1      24.999   1.710  53.000  1.00  0.00     0.179 C 
HETATM    4  C8  UNL     1      24.359   2.171  51.778  1.00  0.00     0.131 C 
HETATM    5  N1  UNL     1      25.059   2.653  50.795  1.00  0.00    -0.244 NA
HETATM    6  C9  UNL     1      26.490   2.718  50.861  1.00  0.00     0.135 C 
HETATM    7  C10 UNL     1      27.100   2.237  51.959  1.00  0.00     0.106 C 
HETATM    8  N2  UNL     1      26.396   1.647  53.061  1.00  0.00    -0.369 N 
HETATM    9  N3  UNL     1      22.972   1.856  51.906  1.00  0.00    -0.342 N 
HETATM   10  H13 UNL     1      22.230   2.274  51.311  1.00  0.00     0.167 HD
ENDROOT
BRANCH   1  11
HETATM   11  C4  UNL     1      21.659   0.196  53.147  1.00  0.00    -0.009 A 
HETATM   12  C3  UNL     1      20.457   0.479  52.536  1.00  0.00     0.016 A 
HETATM   13  C2  UNL     1      19.348  -0.289  52.807  1.00  0.00     0.037 A 
HETATM   14  C1  UNL     1      19.379  -1.366  53.694  1.00  0.00     0.065 A 
HETATM   15  C18 UNL     1      20.582  -1.645  54.303  1.00  0.00     0.037 A 
HETATM   16  C17 UNL     1      21.705  -0.883  54.040  1.00  0.00     0.016 A 
BRANCH  14  17
HETATM   17  O1  UNL     1      18.178  -2.043  53.863  1.00  0.00    -0.361 OA
HETATM   18  H1  UNL     1      17.754  -2.557  53.115  1.00  0.00     0.217 HD
ENDBRANCH  14  17
ENDBRANCH   1  11
BRANCH   8  19
HETATM   19  C11 UNL     1      27.136   1.039  54.137  1.00  0.00     0.162 C 
BRANCH  19  20
HETATM   20  C12 UNL     1      28.253   0.191  53.645  1.00  0.00    -0.029 C 
HETATM   21  C13 UNL     1      29.566   0.137  53.486  1.00  0.00    -0.017 C 
HETATM   22  C14 UNL     1      30.056  -1.069  53.720  1.00  0.00     0.013 C 
HETATM   23  C15 UNL     1      28.987  -1.909  53.137  1.00  0.00     0.002 C 
HETATM   24  C16 UNL     1      27.891  -1.133  53.095  1.00  0.00     0.010 C 
ENDBRANCH  19  20
ENDBRANCH   8  19
TORSDOF 4
ENDMDL
MODEL 3
REMARK VINA RESULT:      -8.2      3.479      4.605
REMARK  4 active torsions:
REMARK  status: ('A' for Active; 'I' for Inactive)
REMARK    1  A    between atoms: O1_1  and  C1_2 
REMARK    2  A    between atoms: C4_5  and  C5_6 
REMARK    3  A    between atoms: N2_13  and  C11_14 
REMARK    4  A    between atoms: C11_14  and  C12_15 
ROOT
HETATM    1  C5  UNL     1      24.630  -0.037  53.647  1.00  0.00     0.042 C 
HETATM    2  C6  UNL     1      23.883   0.742  52.869  1.00  0.00     0.036 C 
HETATM    3  C7  UNL     1      22.549   0.632  53.458  1.00  0.00     0.179 C 
HETATM    4  C8  UNL     1      22.525  -0.632  54.179  1.00  0.00     0.131 C 
HETATM    5  N1  UNL     1      21.424  -1.309  54.310  1.00  0.00    -0.244 NA
HETATM    6  C9  UNL     1      20.197  -0.857  53.721  1.00  0.00     0.135 C 
HETATM    7  C10 UNL     1      20.217   0.278  52.998  1.00  0.00     0.106 C 
HETATM    8  N2  UNL     1      21.403   1.050  52.771  1.00  0.00    -0.369 N 
HETATM    9  N3  UNL     1      23.881  -0.925  54.522  1.00  0.00    -0.342 N 
HETATM   10  H13 UNL     1      24.154  -1.624  55.239  1.00  0.00     0.167 HD
ENDROOT
BRANCH   1  11
HETATM   11  C4  UNL     1      26.084  -0.344  53.611  1.00  0.00    -0.009 A 
HETATM   12  C3  UNL     1      26.755  -1.231  52.798  1.00  0.00     0.016 A 
HETATM   13  C2  UNL     1      28.118  -1.377  52.913  1.00  0.00     0.037 A 
HETATM   14  C1  UNL     1      28.874  -0.655  53.837  1.00  0.00     0.065 A 
HETATM   15  C18 UNL     1      28.200   0.231  54.648  1.00  0.00     0.037 A 
HETATM   16  C17 UNL     1      26.831   0.389  54.543  1.00  0.00     0.016 A 
BRANCH  14  17
HETATM   17  O1  UNL     1      30.239  -0.913  53.832  1.00  0.00    -0.361 OA
HETATM   18  H1  UNL     1      30.914  -0.181  53.936  1.00  0.00     0.217 HD
ENDBRANCH  14  17
ENDBRANCH   1  11
BRANCH   8  19
HETATM   19  C11 UNL     1      21.360   2.178  51.876  1.00  0.00     0.162 C 
BRANCH  19  20
HETATM   20  C12 UNL     1      21.741   1.812  50.488  1.00  0.00    -0.029 C 
HETATM   21  C13 UNL     1      21.501   0.963  49.500  1.00  0.00    -0.017 C 
HETATM   22  C14 UNL     1      21.543   1.541  48.312  1.00  0.00     0.013 C 
HETATM   23  C15 UNL     1      22.668   2.481  48.513  1.00  0.00     0.002 C 
HETATM   24  C16 UNL     1      22.781   2.641  49.842  1.00  0.00     0.010 C 
ENDBRANCH  19  20
ENDBRANCH   8  19
TORSDOF 4
ENDMDL
MODEL 4
REMARK VINA RESULT:      -8.1      2.746      5.077
REMARK  4 active torsions:
REMARK  status: ('A' for Active; 'I' for Inactive)
REMARK    1  A    between atoms: O1_1  and  C1_2 
REMARK    2  A    between atoms: C4_5  and  C5_6 
REMARK    3  A    between atoms: N2_13  and  C11_14 
REMARK    4  A    between atoms: C11_14  and  C12_15 
ROOT
HETATM    1  C5  UNL     1      25.792   1.427  52.299  1.00  0.00     0.042 C 
HETATM    2  C6  UNL     1      24.584   0.882  52.177  1.00  0.00     0.036 C 
HETATM    3  C7  UNL     1      23.777   1.964  51.613  1.00  0.00     0.179 C 
HETATM    4  C8  UNL     1      24.446   3.204  51.980  1.00  0.00     0.131 C 
HETATM    5  N1  UNL     1      23.774   4.298  52.170  1.00  0.00    -0.244 NA
HETATM    6  C9  UNL     1      22.344   4.323  52.060  1.00  0.00     0.135 C 
HETATM    7  C10 UNL     1      21.706   3.171  51.784  1.00  0.00     0.106 C 
HETATM    8  N2  UNL     1      22.379   1.916  51.610  1.00  0.00    -0.369 N 
HETATM    9  N3  UNL     1      25.823   2.876  52.174  1.00  0.00    -0.342 N 
HETATM   10  H13 UNL     1      26.584   3.582  52.202  1.00  0.00     0.167 HD
ENDROOT
BRANCH   1  11
HETATM   11  C4  UNL     1      27.074   0.854  52.784  1.00  0.00    -0.009 A 
HETATM   12  C3  UNL     1      28.175   1.514  53.283  1.00  0.00     0.016 A 
HETATM   13  C2  UNL     1      29.282   0.803  53.687  1.00  0.00     0.037 A 
HETATM   14  C1  UNL     1      29.347  -0.589  53.611  1.00  0.00     0.065 A 
HETATM   15  C18 UNL     1      28.245  -1.245  53.111  1.00  0.00     0.037 A 
HETATM   16  C17 UNL     1      27.126  -0.544  52.703  1.00  0.00     0.016 A 
BRANCH  14  17
HETATM   17  O1  UNL     1      30.532  -1.162  54.057  1.00  0.00    -0.361 OA
HETATM   18  H1  UNL     1      31.165  -0.665  54.653  1.00  0.00     0.217 HD
ENDBRANCH  14  17
ENDBRANCH   1  11
BRANCH   8  19
HETATM   19  C11 UNL     1      21.608   0.710  51.448  1.00  0.00     0.162 C 
BRANCH  19  20
HETATM   20  C12 UNL     1      21.520  -0.076  52.705  1.00  0.00    -0.029 C 
HETATM   21  C13 UNL     1      21.893  -1.203  53.292  1.00  0.00    -0.017 C 
HETATM   22  C14 UNL     1      22.181  -1.037  54.572  1.00  0.00     0.013 C 
HETATM   23  C15 UNL     1      21.140  -0.059  54.955  1.00  0.00     0.002 C 
HETATM   24  C16 UNL     1      20.742   0.523  53.812  1.00  0.00     0.010 C 
ENDBRANCH  19  20
ENDBRANCH   8  19
TORSDOF 4
ENDMDL
MODEL 5
REMARK VINA RESULT:      -7.8      3.021      5.300
REMARK  4 active torsions:
REMARK  status: ('A' for Active; 'I' for Inactive)
REMARK    1  A    between atoms: O1_1  and  C1_2 
REMARK    2  A    between atoms: C4_5  and  C5_6 
REMARK    3  A    between atoms: N2_13  and  C11_14 
REMARK    4  A    between atoms: C11_14  and  C12_15 
ROOT
HETATM    1  C5  UNL     1      25.425   1.726  52.208  1.00  0.00     0.042 C 
HETATM    2  C6  UNL     1      24.252   1.195  51.871  1.00  0.00     0.036 C 
HETATM    3  C7  UNL     1      23.456   2.355  51.471  1.00  0.00     0.179 C 
HETATM    4  C8  UNL     1      24.047   3.504  52.140  1.00  0.00     0.131 C 
HETATM    5  N1  UNL     1      23.321   4.524  52.489  1.00  0.00    -0.244 NA
HETATM    6  C9  UNL     1      21.905   4.543  52.260  1.00  0.00     0.135 C 
HETATM    7  C10 UNL     1      21.335   3.462  51.699  1.00  0.00     0.106 C 
HETATM    8  N2  UNL     1      22.065   2.283  51.333  1.00  0.00    -0.369 N 
HETATM    9  N3  UNL     1      25.414   3.169  52.385  1.00  0.00    -0.342 N 
HETATM   10  H13 UNL     1      26.143   3.868  52.624  1.00  0.00     0.167 HD
ENDROOT
BRANCH   1  11
HETATM   11  C4  UNL     1      26.683   1.089  52.679  1.00  0.00    -0.009 A 
HETATM   12  C3  UNL     1      27.828   1.693  53.147  1.00  0.00     0.016 A 
HETATM   13  C2  UNL     1      28.901   0.927  53.541  1.00  0.00     0.037 A 
HETATM   14  C1  UNL     1      28.887  -0.467  53.487  1.00  0.00     0.065 A 
HETATM   15  C18 UNL     1      27.740  -1.068  53.018  1.00  0.00     0.037 A 
HETATM   16  C17 UNL     1      26.654  -0.311  52.619  1.00  0.00     0.016 A 
BRANCH  14  17
HETATM   17  O1  UNL     1      30.046  -1.099  53.919  1.00  0.00    -0.361 OA
HETATM   18  H1  UNL     1      30.250  -2.048  53.676  1.00  0.00     0.217 HD
ENDBRANCH  14  17
ENDBRANCH   1  11
BRANCH   8  19
HETATM   19  C11 UNL     1      21.355   1.122  50.861  1.00  0.00     0.162 C 
BRANCH  19  20
HETATM   20  C12 UNL     1      20.368   0.623  51.852  1.00  0.00    -0.029 C 
HETATM   21  C13 UNL     1      19.074   0.488  52.100  1.00  0.00    -0.017 C 
HETATM   22  C14 UNL     1      18.790  -0.650  52.711  1.00  0.00     0.013 C 
HETATM   23  C15 UNL     1      19.954  -0.765  53.616  1.00  0.00     0.002 C 
HETATM   24  C16 UNL     1      20.912   0.014  53.085  1.00  0.00     0.010 C 
ENDBRANCH  19  20
ENDBRANCH   8  19
TORSDOF 4
ENDMDL
MODEL 6
REMARK VINA RESULT:      -7.7      3.126      6.786
REMARK  4 active torsions:
REMARK  status: ('A' for Active; 'I' for Inactive)
REMARK    1  A    between atoms: O1_1  and  C1_2 
REMARK    2  A    between atoms: C4_5  and  C5_6 
REMARK    3  A    between atoms: N2_13  and  C11_14 
REMARK    4  A    between atoms: C11_14  and  C12_15 
ROOT
HETATM    1  C5  UNL     1      25.669   2.602  51.131  1.00  0.00     0.042 C 
HETATM    2  C6  UNL     1      26.263   2.191  52.249  1.00  0.00     0.036 C 
HETATM    3  C7  UNL     1      25.567   0.945  52.567  1.00  0.00     0.179 C 
HETATM    4  C8  UNL     1      24.265   1.031  51.922  1.00  0.00     0.131 C 
HETATM    5  N1  UNL     1      23.225   0.441  52.431  1.00  0.00    -0.244 NA
HETATM    6  C9  UNL     1      23.310  -0.289  53.662  1.00  0.00     0.135 C 
HETATM    7  C10 UNL     1      24.493  -0.325  54.302  1.00  0.00     0.106 C 
HETATM    8  N2  UNL     1      25.670   0.343  53.826  1.00  0.00    -0.369 N 
HETATM    9  N3  UNL     1      24.418   1.928  50.821  1.00  0.00    -0.342 N 
HETATM   10  H13 UNL     1      23.739   2.000  50.040  1.00  0.00     0.167 HD
ENDROOT
BRANCH   1  11
HETATM   11  C4  UNL     1      25.921   3.790  50.274  1.00  0.00    -0.009 A 
HETATM   12  C3  UNL     1      26.971   4.019  49.412  1.00  0.00     0.016 A 
HETATM   13  C2  UNL     1      27.031   5.193  48.696  1.00  0.00     0.037 A 
HETATM   14  C1  UNL     1      26.059   6.188  48.803  1.00  0.00     0.065 A 
HETATM   15  C18 UNL     1      25.011   5.954  49.667  1.00  0.00     0.037 A 
HETATM   16  C17 UNL     1      24.937   4.780  50.392  1.00  0.00     0.016 A 
BRANCH  14  17
HETATM   17  O1  UNL     1      26.259   7.314  48.016  1.00  0.00    -0.361 OA
HETATM   18  H1  UNL     1      26.802   7.279  47.175  1.00  0.00     0.217 HD
ENDBRANCH  14  17
ENDBRANCH   1  11
BRANCH   8  19
HETATM   19  C11 UNL     1      26.857   0.362  54.640  1.00  0.00     0.162 C 
BRANCH  19  20
HETATM   20  C12 UNL     1      28.045  -0.163  53.918  1.00  0.00    -0.029 C 
HETATM   21  C13 UNL     1      29.296   0.106  53.578  1.00  0.00    -0.017 C 
HETATM   22  C14 UNL     1      30.074  -0.963  53.620  1.00  0.00     0.013 C 
HETATM   23  C15 UNL     1      29.143  -1.991  53.106  1.00  0.00     0.002 C 
HETATM   24  C16 UNL     1      27.908  -1.495  53.291  1.00  0.00     0.010 C 
ENDBRANCH  19  20
ENDBRANCH   8  19
TORSDOF 4
ENDMDL
MODEL 7
REMARK VINA RESULT:      -7.5      4.809      6.427
REMARK  4 active torsions:
REMARK  status: ('A' for Active; 'I' for Inactive)
REMARK    1  A    between atoms: O1_1  and  C1_2 
REMARK    2  A    between atoms: C4_5  and  C5_6 
REMARK    3  A    between atoms: N2_13  and  C11_14 
REMARK    4  A    between atoms: C11_14  and  C12_15 
ROOT
HETATM    1  C5  UNL     1      21.763  -0.047  52.872  1.00  0.00     0.042 C 
HETATM    2  C6  UNL     1      22.400   1.118  52.786  1.00  0.00     0.036 C 
HETATM    3  C7  UNL     1      23.811   0.742  52.875  1.00  0.00     0.179 C 
HETATM    4  C8  UNL     1      23.847  -0.540  53.563  1.00  0.00     0.131 C 
HETATM    5  N1  UNL     1      24.860  -0.874  54.305  1.00  0.00    -0.244 NA
HETATM    6  C9  UNL     1      25.966   0.017  54.501  1.00  0.00     0.135 C 
HETATM    7  C10 UNL     1      25.918   1.231  53.922  1.00  0.00     0.106 C 
HETATM    8  N2  UNL     1      24.811   1.686  53.132  1.00  0.00    -0.369 N 
HETATM    9  N3  UNL     1      22.580  -1.158  53.332  1.00  0.00    -0.342 N 
HETATM   10  H13 UNL     1      22.397  -2.168  53.487  1.00  0.00     0.167 HD
ENDROOT
BRANCH   1  11
HETATM   11  C4  UNL     1      20.313  -0.370  52.822  1.00  0.00    -0.009 A 
HETATM   12  C3  UNL     1      19.337   0.182  52.022  1.00  0.00     0.016 A 
HETATM   13  C2  UNL     1      18.036  -0.253  52.120  1.00  0.00     0.037 A 
HETATM   14  C1  UNL     1      17.644  -1.250  53.015  1.00  0.00     0.065 A 
HETATM   15  C18 UNL     1      18.622  -1.799  53.813  1.00  0.00     0.037 A 
HETATM   16  C17 UNL     1      19.934  -1.373  53.725  1.00  0.00     0.016 A 
BRANCH  14  17
HETATM   17  O1  UNL     1      16.295  -1.580  52.996  1.00  0.00    -0.361 OA
HETATM   18  H1  UNL     1      15.934  -2.286  52.385  1.00  0.00     0.217 HD
ENDBRANCH  14  17
ENDBRANCH   1  11
BRANCH   8  19
HETATM   19  C11 UNL     1      24.783   3.046  52.660  1.00  0.00     0.162 C 
BRANCH  19  20
HETATM   20  C12 UNL     1      25.047   3.142  51.200  1.00  0.00    -0.029 C 
HETATM   21  C13 UNL     1      24.482   3.349  50.021  1.00  0.00    -0.017 C 
HETATM   22  C14 UNL     1      25.245   4.061  49.210  1.00  0.00     0.013 C 
HETATM   23  C15 UNL     1      26.577   3.514  49.548  1.00  0.00     0.002 C 
HETATM   24  C16 UNL     1      26.448   2.956  50.764  1.00  0.00     0.010 C 
ENDBRANCH  19  20
ENDBRANCH   8  19
TORSDOF 4
ENDMDL
MODEL 8
REMARK VINA RESULT:      -7.5      4.617      5.939
REMARK  4 active torsions:
REMARK  status: ('A' for Active; 'I' for Inactive)
REMARK    1  A    between atoms: O1_1  and  C1_2 
REMARK    2  A    between atoms: C4_5  and  C5_6 
REMARK    3  A    between atoms: N2_13  and  C11_14 
REMARK    4  A    between atoms: C11_14  and  C12_15 
ROOT
HETATM    1  C5  UNL     1      24.560  -0.164  54.024  1.00  0.00     0.042 C 
HETATM    2  C6  UNL     1      23.731   0.489  53.212  1.00  0.00     0.036 C 
HETATM    3  C7  UNL     1      22.415   0.244  53.801  1.00  0.00     0.179 C 
HETATM    4  C8  UNL     1      22.536  -0.983  54.574  1.00  0.00     0.131 C 
HETATM    5  N1  UNL     1      21.523  -1.780  54.730  1.00  0.00    -0.244 NA
HETATM    6  C9  UNL     1      20.255  -1.502  54.120  1.00  0.00     0.135 C 
HETATM    7  C10 UNL     1      20.145  -0.404  53.351  1.00  0.00     0.106 C 
HETATM    8  N2  UNL     1      21.233   0.495  53.095  1.00  0.00    -0.369 N 
HETATM    9  N3  UNL     1      23.915  -1.099  54.933  1.00  0.00    -0.342 N 
HETATM   10  H13 UNL     1      24.263  -1.730  55.679  1.00  0.00     0.167 HD
ENDROOT
BRANCH   1  11
HETATM   11  C4  UNL     1      26.040  -0.296  54.004  1.00  0.00    -0.009 A 
HETATM   12  C3  UNL     1      26.967   0.310  54.823  1.00  0.00     0.016 A 
HETATM   13  C2  UNL     1      28.309   0.060  54.649  1.00  0.00     0.037 A 
HETATM   14  C1  UNL     1      28.790  -0.796  53.658  1.00  0.00     0.065 A 
HETATM   15  C18 UNL     1      27.860  -1.399  52.841  1.00  0.00     0.037 A 
HETATM   16  C17 UNL     1      26.509  -1.159  53.005  1.00  0.00     0.016 A 
BRANCH  14  17
HETATM   17  O1  UNL     1      30.170  -0.945  53.609  1.00  0.00    -0.361 OA
HETATM   18  H1  UNL     1      30.646  -1.165  52.756  1.00  0.00     0.217 HD
ENDBRANCH  14  17
ENDBRANCH   1  11
BRANCH   8  19
HETATM   19  C11 UNL     1      21.063   1.572  52.154  1.00  0.00     0.162 C 
BRANCH  19  20
HETATM   20  C12 UNL     1      19.856   1.394  51.305  1.00  0.00    -0.029 C 
HETATM   21  C13 UNL     1      19.355   0.712  50.286  1.00  0.00    -0.017 C 
HETATM   22  C14 UNL     1      18.076   0.419  50.452  1.00  0.00     0.013 C 
HETATM   23  C15 UNL     1      17.600   1.661  51.098  1.00  0.00     0.002 C 
HETATM   24  C16 UNL     1      18.691   2.250  51.616  1.00  0.00     0.010 C 
ENDBRANCH  19  20
ENDBRANCH   8  19
TORSDOF 4
ENDMDL
MODEL 9
REMARK VINA RESULT:      -7.5      1.401      2.142
REMARK  4 active torsions:
REMARK  status: ('A' for Active; 'I' for Inactive)
REMARK    1  A    between atoms: O1_1  and  C1_2 
REMARK    2  A    between atoms: C4_5  and  C5_6 
REMARK    3  A    between atoms: N2_13  and  C11_14 
REMARK    4  A    between atoms: C11_14  and  C12_15 
ROOT
HETATM    1  C5  UNL     1      24.770   2.663  51.897  1.00  0.00     0.042 C 
HETATM    2  C6  UNL     1      24.818   3.266  50.711  1.00  0.00     0.036 C 
HETATM    3  C7  UNL     1      24.181   4.559  50.961  1.00  0.00     0.179 C 
HETATM    4  C8  UNL     1      23.322   4.372  52.121  1.00  0.00     0.131 C 
HETATM    5  N1  UNL     1      22.229   5.060  52.264  1.00  0.00    -0.244 NA
HETATM    6  C9  UNL     1      21.808   6.004  51.270  1.00  0.00     0.135 C 
HETATM    7  C10 UNL     1      22.559   6.142  50.162  1.00  0.00     0.106 C 
HETATM    8  N2  UNL     1      23.750   5.382  49.915  1.00  0.00    -0.369 N 
HETATM    9  N3  UNL     1      23.877   3.284  52.862  1.00  0.00    -0.342 N 
HETATM   10  H13 UNL     1      23.632   3.077  53.849  1.00  0.00     0.167 HD
ENDROOT
BRANCH   1  11
HETATM   11  C4  UNL     1      25.270   1.334  52.335  1.00  0.00    -0.009 A 
HETATM   12  C3  UNL     1      24.648   0.405  53.139  1.00  0.00     0.016 A 
HETATM   13  C2  UNL     1      25.278  -0.783  53.435  1.00  0.00     0.037 A 
HETATM   14  C1  UNL     1      26.548  -1.099  52.952  1.00  0.00     0.065 A 
HETATM   15  C18 UNL     1      27.167  -0.167  52.149  1.00  0.00     0.037 A 
HETATM   16  C17 UNL     1      26.546   1.029  51.842  1.00  0.00     0.016 A 
BRANCH  14  17
HETATM   17  O1  UNL     1      27.049  -2.335  53.340  1.00  0.00    -0.361 OA
HETATM   18  H1  UNL     1      26.549  -2.933  53.968  1.00  0.00     0.217 HD
ENDBRANCH  14  17
ENDBRANCH   1  11
BRANCH   8  19
HETATM   19  C11 UNL     1      24.419   5.499  48.645  1.00  0.00     0.162 C 
BRANCH  19  20
HETATM   20  C12 UNL     1      25.852   5.865  48.794  1.00  0.00    -0.029 C 
HETATM   21  C13 UNL     1      27.088   5.395  48.737  1.00  0.00    -0.017 C 
HETATM   22  C14 UNL     1      27.937   6.261  48.210  1.00  0.00     0.013 C 
HETATM   23  C15 UNL     1      27.419   7.524  48.781  1.00  0.00     0.002 C 
HETATM   24  C16 UNL     1      26.147   7.274  49.134  1.00  0.00     0.010 C 
ENDBRANCH  19  20
ENDBRANCH   8  19
TORSDOF 4
ENDMDL
