MODEL 1
REMARK VINA RESULT:      -8.0      0.000      0.000
REMARK  5 active torsions:
REMARK  status: ('A' for Active; 'I' for Inactive)
REMARK    1  A    between atoms: N1_2  and  C3_4 
REMARK    2  A    between atoms: C3_4  and  C4_5 
REMARK    3  A    between atoms: N2_6  and  C5_7 
REMARK    4  A    between atoms: C6_8  and  C7_9 
REMARK    5  A    between atoms: C7_9  and  C8_10 
ROOT
HETATM    1  C5  UNL     1      22.364   1.423  51.857  1.00  0.00     0.122 C 
HETATM    2  C6  UNL     1      23.572   2.180  51.303  1.00  0.00     0.020 C 
HETATM    3  C9  UNL     1      24.751   2.595  51.836  1.00  0.00     0.108 A 
HETATM    4  N3  UNL     1      25.993   3.272  51.518  1.00  0.00    -0.411 N 
HETATM    5  C10 UNL     1      26.100   1.905  51.087  1.00  0.00     0.147 A 
HETATM    6  C11 UNL     1      26.157   1.052  52.281  1.00  0.00     0.010 C 
HETATM    7  C12 UNL     1      25.515   0.311  53.166  1.00  0.00     0.043 A 
HETATM    8  C13 UNL     1      26.290  -0.395  54.226  1.00  0.00     0.256 A 
HETATM    9  O1  UNL     1      27.541  -0.494  54.486  1.00  0.00    -0.267 OA
HETATM   10  N4  UNL     1      25.321  -1.031  55.016  1.00  0.00    -0.322 N 
HETATM   11  C14 UNL     1      24.030  -0.757  54.514  1.00  0.00     0.046 A 
HETATM   12  C15 UNL     1      22.908  -1.257  55.143  1.00  0.00     0.030 A 
HETATM   13  C16 UNL     1      21.705  -0.871  54.567  1.00  0.00     0.003 A 
HETATM   14  C17 UNL     1      21.741  -0.038  53.450  1.00  0.00     0.010 A 
HETATM   15  C18 UNL     1      22.905   0.423  52.883  1.00  0.00    -0.021 A 
HETATM   16  C19 UNL     1      24.126   0.055  53.406  1.00  0.00     0.015 A 
HETATM   17  H18 UNL     1      25.919   4.252  51.825  1.00  0.00     0.153 HD
HETATM   18  H22 UNL     1      25.631  -1.600  55.837  1.00  0.00     0.169 HD
ENDROOT
BRANCH   1  19
HETATM   19  N2  UNL     1      21.593   2.449  52.426  1.00  0.00    -0.411 N 
HETATM   20  C4  UNL     1      20.308   2.850  52.257  1.00  0.00     0.144 C 
HETATM   21  H11 UNL     1      21.930   2.625  53.422  1.00  0.00     0.154 HD
BRANCH  20  22
HETATM   22  C3  UNL     1      19.947   3.500  50.916  1.00  0.00     0.290 C 
BRANCH  22  23
HETATM   23  N1  UNL     1      18.743   2.867  50.427  1.00  0.00     0.081 N 
HETATM   24  C1  UNL     1      17.765   2.898  51.497  1.00  0.00     0.309 C 
HETATM   25  C2  UNL     1      18.999   1.508  50.050  1.00  0.00     0.309 C 
ENDBRANCH  22  23
ENDBRANCH  20  22
ENDBRANCH   1  19
BRANCH   2  26
HETATM   26  C7  UNL     1      23.432   2.817  50.014  1.00  0.00     0.046 C 
BRANCH  26  27
HETATM   27  C8  UNL     1      22.585   2.035  49.030  1.00  0.00     0.223 C 
HETATM   28  F1  UNL     1      23.058   2.238  47.754  1.00  0.00    -0.255 F 
ENDBRANCH  26  27
ENDBRANCH   2  26
TORSDOF 5
ENDMDL
MODEL 2
REMARK VINA RESULT:      -7.8      1.549      2.037
REMARK  5 active torsions:
REMARK  status: ('A' for Active; 'I' for Inactive)
REMARK    1  A    between atoms: N1_2  and  C3_4 
REMARK    2  A    between atoms: C3_4  and  C4_5 
REMARK    3  A    between atoms: N2_6  and  C5_7 
REMARK    4  A    between atoms: C6_8  and  C7_9 
REMARK    5  A    between atoms: C7_9  and  C8_10 
ROOT
HETATM    1  C5  UNL     1      22.816   2.057  51.552  1.00  0.00     0.122 C 
HETATM    2  C6  UNL     1      24.142   2.612  51.026  1.00  0.00     0.020 C 
HETATM    3  C9  UNL     1      25.376   2.778  51.567  1.00  0.00     0.108 A 
HETATM    4  N3  UNL     1      26.720   3.236  51.272  1.00  0.00    -0.411 N 
HETATM    5  C10 UNL     1      26.578   1.897  50.769  1.00  0.00     0.147 A 
HETATM    6  C11 UNL     1      26.480   0.985  51.915  1.00  0.00     0.010 C 
HETATM    7  C12 UNL     1      25.716   0.326  52.767  1.00  0.00     0.043 A 
HETATM    8  C13 UNL     1      26.351  -0.565  53.780  1.00  0.00     0.256 A 
HETATM    9  O1  UNL     1      27.563  -0.902  54.022  1.00  0.00    -0.267 OA
HETATM   10  N4  UNL     1      25.283  -1.056  54.546  1.00  0.00    -0.322 N 
HETATM   11  C14 UNL     1      24.063  -0.527  54.072  1.00  0.00     0.046 A 
HETATM   12  C15 UNL     1      22.869  -0.849  54.686  1.00  0.00     0.030 A 
HETATM   13  C16 UNL     1      21.756  -0.222  54.144  1.00  0.00     0.003 A 
HETATM   14  C17 UNL     1      21.941   0.649  53.071  1.00  0.00     0.010 A 
HETATM   15  C18 UNL     1      23.168   0.922  52.517  1.00  0.00    -0.021 A 
HETATM   16  C19 UNL     1      24.303   0.312  53.008  1.00  0.00     0.015 A 
HETATM   17  H18 UNL     1      26.825   4.196  51.631  1.00  0.00     0.153 HD
HETATM   18  H22 UNL     1      25.485  -1.716  55.332  1.00  0.00     0.169 HD
ENDROOT
BRANCH   1  19
HETATM   19  N2  UNL     1      22.245   3.173  52.181  1.00  0.00    -0.411 N 
HETATM   20  C4  UNL     1      21.144   3.925  51.924  1.00  0.00     0.144 C 
HETATM   21  H11 UNL     1      22.450   3.125  53.227  1.00  0.00     0.154 HD
BRANCH  20  22
HETATM   22  C3  UNL     1      21.178   4.811  50.673  1.00  0.00     0.290 C 
BRANCH  22  23
HETATM   23  N1  UNL     1      21.508   6.155  51.092  1.00  0.00     0.081 N 
HETATM   24  C1  UNL     1      20.778   7.072  50.239  1.00  0.00     0.309 C 
HETATM   25  C2  UNL     1      22.914   6.398  50.963  1.00  0.00     0.309 C 
ENDBRANCH  22  23
ENDBRANCH  20  22
ENDBRANCH   1  19
BRANCH   2  26
HETATM   26  C7  UNL     1      24.118   3.332  49.773  1.00  0.00     0.046 C 
BRANCH  26  27
HETATM   27  C8  UNL     1      23.243   2.694  48.713  1.00  0.00     0.223 C 
HETATM   28  F1  UNL     1      22.814   3.658  47.830  1.00  0.00    -0.255 F 
ENDBRANCH  26  27
ENDBRANCH   2  26
TORSDOF 5
ENDMDL
MODEL 3
REMARK VINA RESULT:      -7.7      2.672      4.343
REMARK  5 active torsions:
REMARK  status: ('A' for Active; 'I' for Inactive)
REMARK    1  A    between atoms: N1_2  and  C3_4 
REMARK    2  A    between atoms: C3_4  and  C4_5 
REMARK    3  A    between atoms: N2_6  and  C5_7 
REMARK    4  A    between atoms: C6_8  and  C7_9 
REMARK    5  A    between atoms: C7_9  and  C8_10 
ROOT
HETATM    1  C5  UNL     1      24.061   2.732  51.788  1.00  0.00     0.122 C 
HETATM    2  C6  UNL     1      25.351   2.204  52.420  1.00  0.00     0.020 C 
HETATM    3  C9  UNL     1      25.661   1.680  53.634  1.00  0.00     0.108 A 
HETATM    4  N3  UNL     1      26.749   1.120  54.412  1.00  0.00    -0.411 N 
HETATM    5  C10 UNL     1      26.236   0.093  53.547  1.00  0.00     0.147 A 
HETATM    6  C11 UNL     1      24.895  -0.274  54.018  1.00  0.00     0.010 C 
HETATM    7  C12 UNL     1      23.588  -0.102  53.939  1.00  0.00     0.043 A 
HETATM    8  C13 UNL     1      22.688  -0.940  54.782  1.00  0.00     0.256 A 
HETATM    9  O1  UNL     1      22.894  -1.894  55.613  1.00  0.00    -0.267 OA
HETATM   10  N4  UNL     1      21.395  -0.473  54.503  1.00  0.00    -0.322 N 
HETATM   11  C14 UNL     1      21.453   0.579  53.563  1.00  0.00     0.046 A 
HETATM   12  C15 UNL     1      20.302   1.219  53.149  1.00  0.00     0.030 A 
HETATM   13  C16 UNL     1      20.512   2.262  52.258  1.00  0.00     0.003 A 
HETATM   14  C17 UNL     1      21.820   2.560  51.882  1.00  0.00     0.010 A 
HETATM   15  C18 UNL     1      22.919   1.877  52.344  1.00  0.00    -0.021 A 
HETATM   16  C19 UNL     1      22.763   0.822  53.217  1.00  0.00     0.015 A 
HETATM   17  H18 UNL     1      27.120   1.854  55.032  1.00  0.00     0.153 HD
HETATM   18  H22 UNL     1      20.581  -0.918  54.985  1.00  0.00     0.169 HD
ENDROOT
BRANCH   1  19
HETATM   19  N2  UNL     1      24.028   4.065  52.225  1.00  0.00    -0.411 N 
HETATM   20  C4  UNL     1      23.715   5.237  51.615  1.00  0.00     0.144 C 
HETATM   21  H11 UNL     1      23.779   4.085  53.262  1.00  0.00     0.154 HD
BRANCH  20  22
HETATM   22  C3  UNL     1      24.684   5.748  50.542  1.00  0.00     0.290 C 
BRANCH  22  23
HETATM   23  N1  UNL     1      25.011   7.120  50.860  1.00  0.00     0.081 N 
HETATM   24  C1  UNL     1      23.802   7.906  50.709  1.00  0.00     0.309 C 
HETATM   25  C2  UNL     1      26.021   7.621  49.976  1.00  0.00     0.309 C 
ENDBRANCH  22  23
ENDBRANCH  20  22
ENDBRANCH   1  19
BRANCH   2  26
HETATM   26  C7  UNL     1      26.594   2.480  51.737  1.00  0.00     0.046 C 
BRANCH  26  27
HETATM   27  C8  UNL     1      26.469   2.529  50.227  1.00  0.00     0.223 C 
HETATM   28  F1  UNL     1      27.100   3.655  49.750  1.00  0.00    -0.255 F 
ENDBRANCH  26  27
ENDBRANCH   2  26
TORSDOF 5
ENDMDL
MODEL 4
REMARK VINA RESULT:      -7.6      3.683      7.369
REMARK  5 active torsions:
REMARK  status: ('A' for Active; 'I' for Inactive)
REMARK    1  A    between atoms: N1_2  and  C3_4 
REMARK    2  A    between atoms: C3_4  and  C4_5 
REMARK    3  A    between atoms: N2_6  and  C5_7 
REMARK    4  A    between atoms: C6_8  and  C7_9 
REMARK    5  A    between atoms: C7_9  and  C8_10 
ROOT
HETATM    1  C5  UNL     1      25.337   3.092  50.805  1.00  0.00     0.122 C 
HETATM    2  C6  UNL     1      24.092   3.462  51.614  1.00  0.00     0.020 C 
HETATM    3  C9  UNL     1      23.623   4.620  52.147  1.00  0.00     0.108 A 
HETATM    4  N3  UNL     1      22.518   5.189  52.893  1.00  0.00    -0.411 N 
HETATM    5  C10 UNL     1      22.127   5.088  51.514  1.00  0.00     0.147 A 
HETATM    6  C11 UNL     1      22.911   6.061  50.744  1.00  0.00     0.010 C 
HETATM    7  C12 UNL     1      23.981   6.320  50.014  1.00  0.00     0.043 A 
HETATM    8  C13 UNL     1      24.159   7.681  49.434  1.00  0.00     0.256 A 
HETATM    9  O1  UNL     1      23.443   8.745  49.445  1.00  0.00    -0.267 OA
HETATM   10  N4  UNL     1      25.398   7.635  48.779  1.00  0.00    -0.322 N 
HETATM   11  C14 UNL     1      25.975   6.354  48.925  1.00  0.00     0.046 A 
HETATM   12  C15 UNL     1      27.213   6.073  48.383  1.00  0.00     0.030 A 
HETATM   13  C16 UNL     1      27.677   4.791  48.642  1.00  0.00     0.003 A 
HETATM   14  C17 UNL     1      26.879   3.938  49.404  1.00  0.00     0.010 A 
HETATM   15  C18 UNL     1      25.655   4.296  49.913  1.00  0.00    -0.021 A 
HETATM   16  C19 UNL     1      25.142   5.552  49.671  1.00  0.00     0.015 A 
HETATM   17  H18 UNL     1      22.794   5.262  53.883  1.00  0.00     0.153 HD
HETATM   18  H22 UNL     1      25.743   8.490  48.286  1.00  0.00     0.169 HD
ENDROOT
BRANCH   1  19
HETATM   19  N2  UNL     1      26.295   2.865  51.805  1.00  0.00    -0.411 N 
HETATM   20  C4  UNL     1      27.121   1.824  52.082  1.00  0.00     0.144 C 
HETATM   21  H11 UNL     1      26.733   3.796  52.085  1.00  0.00     0.154 HD
BRANCH  20  22
HETATM   22  C3  UNL     1      26.472   0.532  52.594  1.00  0.00     0.290 C 
BRANCH  22  23
HETATM   23  N1  UNL     1      27.273   0.038  53.690  1.00  0.00     0.081 N 
HETATM   24  C1  UNL     1      26.534   0.272  54.916  1.00  0.00     0.309 C 
HETATM   25  C2  UNL     1      28.530   0.722  53.751  1.00  0.00     0.309 C 
ENDBRANCH  22  23
ENDBRANCH  20  22
ENDBRANCH   1  19
BRANCH   2  26
HETATM   26  C7  UNL     1      23.300   2.383  52.157  1.00  0.00     0.046 C 
BRANCH  26  27
HETATM   27  C8  UNL     1      22.812   1.393  51.117  1.00  0.00     0.223 C 
HETATM   28  F1  UNL     1      22.402   2.072  49.993  1.00  0.00    -0.255 F 
ENDBRANCH  26  27
ENDBRANCH   2  26
TORSDOF 5
ENDMDL
MODEL 5
REMARK VINA RESULT:      -7.5      2.753      5.697
REMARK  5 active torsions:
REMARK  status: ('A' for Active; 'I' for Inactive)
REMARK    1  A    between atoms: N1_2  and  C3_4 
REMARK    2  A    between atoms: C3_4  and  C4_5 
REMARK    3  A    between atoms: N2_6  and  C5_7 
REMARK    4  A    between atoms: C6_8  and  C7_9 
REMARK    5  A    between atoms: C7_9  and  C8_10 
ROOT
HETATM    1  C5  UNL     1      24.550   0.889  53.048  1.00  0.00     0.122 C 
HETATM    2  C6  UNL     1      24.331   1.862  51.887  1.00  0.00     0.020 C 
HETATM    3  C9  UNL     1      23.449   1.916  50.855  1.00  0.00     0.108 A 
HETATM    4  N3  UNL     1      23.054   2.709  49.707  1.00  0.00    -0.411 N 
HETATM    5  C10 UNL     1      22.474   3.297  50.883  1.00  0.00     0.147 A 
HETATM    6  C11 UNL     1      21.437   2.388  51.385  1.00  0.00     0.010 C 
HETATM    7  C12 UNL     1      21.102   1.398  52.193  1.00  0.00     0.043 A 
HETATM    8  C13 UNL     1      19.686   0.934  52.231  1.00  0.00     0.256 A 
HETATM    9  O1  UNL     1      18.614   1.320  51.643  1.00  0.00    -0.267 OA
HETATM   10  N4  UNL     1      19.685  -0.143  53.130  1.00  0.00    -0.322 N 
HETATM   11  C14 UNL     1      20.988  -0.360  53.628  1.00  0.00     0.046 A 
HETATM   12  C15 UNL     1      21.242  -1.386  54.516  1.00  0.00     0.030 A 
HETATM   13  C16 UNL     1      22.575  -1.510  54.886  1.00  0.00     0.003 A 
HETATM   14  C17 UNL     1      23.500  -0.620  54.342  1.00  0.00     0.010 A 
HETATM   15  C18 UNL     1      23.167   0.377  53.458  1.00  0.00    -0.021 A 
HETATM   16  C19 UNL     1      21.856   0.552  53.071  1.00  0.00     0.015 A 
HETATM   17  H18 UNL     1      23.469   2.290  48.862  1.00  0.00     0.153 HD
HETATM   18  H22 UNL     1      18.785  -0.640  53.325  1.00  0.00     0.169 HD
ENDROOT
BRANCH   1  19
HETATM   19  N2  UNL     1      25.366  -0.097  52.472  1.00  0.00    -0.411 N 
HETATM   20  C4  UNL     1      26.550  -0.652  52.833  1.00  0.00     0.144 C 
HETATM   21  H11 UNL     1      24.752  -0.793  51.947  1.00  0.00     0.154 HD
BRANCH  20  22
HETATM   22  C3  UNL     1      27.795   0.240  52.754  1.00  0.00     0.290 C 
BRANCH  22  23
HETATM   23  N1  UNL     1      27.898   0.968  53.998  1.00  0.00     0.081 N 
HETATM   24  C1  UNL     1      28.554   2.230  53.715  1.00  0.00     0.309 C 
HETATM   25  C2  UNL     1      28.668   0.233  54.957  1.00  0.00     0.309 C 
ENDBRANCH  22  23
ENDBRANCH  20  22
ENDBRANCH   1  19
BRANCH   2  26
HETATM   26  C7  UNL     1      25.363   2.838  51.626  1.00  0.00     0.046 C 
BRANCH  26  27
HETATM   27  C8  UNL     1      26.306   2.453  50.504  1.00  0.00     0.223 C 
HETATM   28  F1  UNL     1      26.203   3.369  49.482  1.00  0.00    -0.255 F 
ENDBRANCH  26  27
ENDBRANCH   2  26
TORSDOF 5
ENDMDL
MODEL 6
REMARK VINA RESULT:      -7.4      2.782      5.018
REMARK  5 active torsions:
REMARK  status: ('A' for Active; 'I' for Inactive)
REMARK    1  A    between atoms: N1_2  and  C3_4 
REMARK    2  A    between atoms: C3_4  and  C4_5 
REMARK    3  A    between atoms: N2_6  and  C5_7 
REMARK    4  A    between atoms: C6_8  and  C7_9 
REMARK    5  A    between atoms: C7_9  and  C8_10 
ROOT
HETATM    1  C5  UNL     1      24.253   1.823  51.124  1.00  0.00     0.122 C 
HETATM    2  C6  UNL     1      25.270   1.261  52.120  1.00  0.00     0.020 C 
HETATM    3  C9  UNL     1      25.217   0.927  53.435  1.00  0.00     0.108 A 
HETATM    4  N3  UNL     1      26.002   0.383  54.526  1.00  0.00    -0.411 N 
HETATM    5  C10 UNL     1      25.531  -0.709  53.720  1.00  0.00     0.147 A 
HETATM    6  C11 UNL     1      24.078  -0.817  53.899  1.00  0.00     0.010 C 
HETATM    7  C12 UNL     1      22.866  -0.501  53.481  1.00  0.00     0.043 A 
HETATM    8  C13 UNL     1      21.679  -1.056  54.192  1.00  0.00     0.256 A 
HETATM    9  O1  UNL     1      21.540  -1.865  55.176  1.00  0.00    -0.267 OA
HETATM   10  N4  UNL     1      20.573  -0.489  53.542  1.00  0.00    -0.322 N 
HETATM   11  C14 UNL     1      21.005   0.363  52.503  1.00  0.00     0.046 A 
HETATM   12  C15 UNL     1      20.092   1.056  51.733  1.00  0.00     0.030 A 
HETATM   13  C16 UNL     1      20.660   1.890  50.779  1.00  0.00     0.003 A 
HETATM   14  C17 UNL     1      22.050   1.951  50.694  1.00  0.00     0.010 A 
HETATM   15  C18 UNL     1      22.894   1.230  51.503  1.00  0.00    -0.021 A 
HETATM   16  C19 UNL     1      22.381   0.375  52.455  1.00  0.00     0.015 A 
HETATM   17  H18 UNL     1      26.342   1.164  55.106  1.00  0.00     0.153 HD
HETATM   18  H22 UNL     1      19.611  -0.736  53.871  1.00  0.00     0.169 HD
ENDROOT
BRANCH   1  19
HETATM   19  N2  UNL     1      24.343   3.207  51.343  1.00  0.00    -0.411 N 
HETATM   20  C4  UNL     1      24.541   4.268  50.520  1.00  0.00     0.144 C 
HETATM   21  H11 UNL     1      23.731   3.467  52.176  1.00  0.00     0.154 HD
BRANCH  20  22
HETATM   22  C3  UNL     1      25.929   4.411  49.883  1.00  0.00     0.290 C 
BRANCH  22  23
HETATM   23  N1  UNL     1      26.122   5.804  49.551  1.00  0.00     0.081 N 
HETATM   24  C1  UNL     1      24.857   6.320  49.067  1.00  0.00     0.309 C 
HETATM   25  C2  UNL     1      27.121   5.952  48.534  1.00  0.00     0.309 C 
ENDBRANCH  22  23
ENDBRANCH  20  22
ENDBRANCH   1  19
BRANCH   2  26
HETATM   26  C7  UNL     1      26.660   1.254  51.727  1.00  0.00     0.046 C 
BRANCH  26  27
HETATM   27  C8  UNL     1      27.507   2.290  52.439  1.00  0.00     0.223 C 
HETATM   28  F1  UNL     1      28.633   1.689  52.952  1.00  0.00    -0.255 F 
ENDBRANCH  26  27
ENDBRANCH   2  26
TORSDOF 5
ENDMDL
MODEL 7
REMARK VINA RESULT:      -7.3      3.197      7.064
REMARK  5 active torsions:
REMARK  status: ('A' for Active; 'I' for Inactive)
REMARK    1  A    between atoms: N1_2  and  C3_4 
REMARK    2  A    between atoms: C3_4  and  C4_5 
REMARK    3  A    between atoms: N2_6  and  C5_7 
REMARK    4  A    between atoms: C6_8  and  C7_9 
REMARK    5  A    between atoms: C7_9  and  C8_10 
ROOT
HETATM    1  C5  UNL     1      25.165   0.961  52.247  1.00  0.00     0.122 C 
HETATM    2  C6  UNL     1      23.787   0.464  52.689  1.00  0.00     0.020 C 
HETATM    3  C9  UNL     1      22.564   1.045  52.795  1.00  0.00     0.108 A 
HETATM    4  N3  UNL     1      21.182   0.784  53.150  1.00  0.00    -0.411 N 
HETATM    5  C10 UNL     1      21.397   0.330  51.803  1.00  0.00     0.147 A 
HETATM    6  C11 UNL     1      21.598   1.508  50.950  1.00  0.00     0.010 C 
HETATM    7  C12 UNL     1      22.435   2.355  50.380  1.00  0.00     0.043 A 
HETATM    8  C13 UNL     1      21.899   3.427  49.493  1.00  0.00     0.256 A 
HETATM    9  O1  UNL     1      20.721   3.728  49.086  1.00  0.00    -0.267 OA
HETATM   10  N4  UNL     1      23.024   4.170  49.106  1.00  0.00    -0.322 N 
HETATM   11  C14 UNL     1      24.188   3.629  49.695  1.00  0.00     0.046 A 
HETATM   12  C15 UNL     1      25.422   4.209  49.480  1.00  0.00     0.030 A 
HETATM   13  C16 UNL     1      26.470   3.600  50.156  1.00  0.00     0.003 A 
HETATM   14  C17 UNL     1      26.187   2.501  50.967  1.00  0.00     0.010 A 
HETATM   15  C18 UNL     1      24.925   1.984  51.133  1.00  0.00    -0.021 A 
HETATM   16  C19 UNL     1      23.853   2.542  50.471  1.00  0.00     0.015 A 
HETATM   17  H18 UNL     1      21.025   1.108  54.115  1.00  0.00     0.153 HD
HETATM   18  H22 UNL     1      22.895   4.989  48.469  1.00  0.00     0.169 HD
ENDROOT
BRANCH   1  19
HETATM   19  N2  UNL     1      25.681   1.523  53.425  1.00  0.00    -0.411 N 
HETATM   20  C4  UNL     1      26.895   1.467  54.028  1.00  0.00     0.144 C 
HETATM   21  H11 UNL     1      25.198   2.457  53.605  1.00  0.00     0.154 HD
BRANCH  20  22
HETATM   22  C3  UNL     1      27.311   0.124  54.642  1.00  0.00     0.290 C 
BRANCH  22  23
HETATM   23  N1  UNL     1      28.755   0.090  54.695  1.00  0.00     0.081 N 
HETATM   24  C1  UNL     1      29.239   1.414  54.355  1.00  0.00     0.309 C 
HETATM   25  C2  UNL     1      29.276  -0.865  53.762  1.00  0.00     0.309 C 
ENDBRANCH  22  23
ENDBRANCH  20  22
ENDBRANCH   1  19
BRANCH   2  26
HETATM   26  C7  UNL     1      23.717  -0.816  53.355  1.00  0.00     0.046 C 
BRANCH  26  27
HETATM   27  C8  UNL     1      23.680  -0.722  54.867  1.00  0.00     0.223 C 
HETATM   28  F1  UNL     1      22.584  -1.405  55.343  1.00  0.00    -0.255 F 
ENDBRANCH  26  27
ENDBRANCH   2  26
TORSDOF 5
ENDMDL
MODEL 8
REMARK VINA RESULT:      -7.1      1.896      2.193
REMARK  5 active torsions:
REMARK  status: ('A' for Active; 'I' for Inactive)
REMARK    1  A    between atoms: N1_2  and  C3_4 
REMARK    2  A    between atoms: C3_4  and  C4_5 
REMARK    3  A    between atoms: N2_6  and  C5_7 
REMARK    4  A    between atoms: C6_8  and  C7_9 
REMARK    5  A    between atoms: C7_9  and  C8_10 
ROOT
HETATM    1  C5  UNL     1      22.645   2.296  51.853  1.00  0.00     0.122 C 
HETATM    2  C6  UNL     1      24.092   2.674  52.175  1.00  0.00     0.020 C 
HETATM    3  C9  UNL     1      24.870   2.571  53.284  1.00  0.00     0.108 A 
HETATM    4  N3  UNL     1      26.204   2.826  53.793  1.00  0.00    -0.411 N 
HETATM    5  C10 UNL     1      26.229   1.592  53.056  1.00  0.00     0.147 A 
HETATM    6  C11 UNL     1      25.466   0.592  53.813  1.00  0.00     0.010 C 
HETATM    7  C12 UNL     1      24.315  -0.017  54.031  1.00  0.00     0.043 A 
HETATM    8  C13 UNL     1      24.244  -1.106  55.047  1.00  0.00     0.256 A 
HETATM    9  O1  UNL     1      25.116  -1.666  55.801  1.00  0.00    -0.267 OA
HETATM   10  N4  UNL     1      22.896  -1.490  55.069  1.00  0.00    -0.322 N 
HETATM   11  C14 UNL     1      22.156  -0.716  54.149  1.00  0.00     0.046 A 
HETATM   12  C15 UNL     1      20.794  -0.897  54.010  1.00  0.00     0.030 A 
HETATM   13  C16 UNL     1      20.189  -0.037  53.103  1.00  0.00     0.003 A 
HETATM   14  C17 UNL     1      20.984   0.901  52.446  1.00  0.00     0.010 A 
HETATM   15  C18 UNL     1      22.338   1.021  52.644  1.00  0.00    -0.021 A 
HETATM   16  C19 UNL     1      22.989   0.181  53.521  1.00  0.00     0.015 A 
HETATM   17  H18 UNL     1      26.190   3.710  54.321  1.00  0.00     0.153 HD
HETATM   18  H22 UNL     1      22.598  -2.255  55.718  1.00  0.00     0.169 HD
ENDROOT
BRANCH   1  19
HETATM   19  N2  UNL     1      21.929   3.419  52.298  1.00  0.00    -0.411 N 
HETATM   20  C4  UNL     1      21.059   4.267  51.693  1.00  0.00     0.144 C 
HETATM   21  H11 UNL     1      21.702   3.299  53.333  1.00  0.00     0.154 HD
BRANCH  20  22
HETATM   22  C3  UNL     1      21.629   5.214  50.630  1.00  0.00     0.290 C 
BRANCH  22  23
HETATM   23  N1  UNL     1      20.812   5.091  49.444  1.00  0.00     0.081 N 
HETATM   24  C1  UNL     1      19.426   5.219  49.851  1.00  0.00     0.309 C 
HETATM   25  C2  UNL     1      21.012   3.818  48.817  1.00  0.00     0.309 C 
ENDBRANCH  22  23
ENDBRANCH  20  22
ENDBRANCH   1  19
BRANCH   2  26
HETATM   26  C7  UNL     1      24.791   3.518  51.233  1.00  0.00     0.046 C 
BRANCH  26  27
HETATM   27  C8  UNL     1      24.614   3.103  49.786  1.00  0.00     0.223 C 
HETATM   28  F1  UNL     1      25.625   3.646  49.026  1.00  0.00    -0.255 F 
ENDBRANCH  26  27
ENDBRANCH   2  26
TORSDOF 5
ENDMDL
MODEL 9
REMARK VINA RESULT:      -6.9      6.376      9.082
REMARK  5 active torsions:
REMARK  status: ('A' for Active; 'I' for Inactive)
REMARK    1  A    between atoms: N1_2  and  C3_4 
REMARK    2  A    between atoms: C3_4  and  C4_5 
REMARK    3  A    between atoms: N2_6  and  C5_7 
REMARK    4  A    between atoms: C6_8  and  C7_9 
REMARK    5  A    between atoms: C7_9  and  C8_10 
ROOT
HETATM    1  C5  UNL     1      27.189   5.949  48.559  1.00  0.00     0.122 C 
HETATM    2  C6  UNL     1      26.336   7.080  49.138  1.00  0.00     0.020 C 
HETATM    3  C9  UNL     1      26.589   8.117  49.977  1.00  0.00     0.108 A 
HETATM    4  N3  UNL     1      25.980   9.268  50.616  1.00  0.00    -0.411 N 
HETATM    5  C10 UNL     1      26.324   9.629  49.268  1.00  0.00     0.147 A 
HETATM    6  C11 UNL     1      27.788   9.687  49.169  1.00  0.00     0.010 C 
HETATM    7  C12 UNL     1      28.921   9.076  48.878  1.00  0.00     0.043 A 
HETATM    8  C13 UNL     1      30.203   9.833  48.967  1.00  0.00     0.256 A 
HETATM    9  O1  UNL     1      30.491  11.049  49.250  1.00  0.00    -0.267 OA
HETATM   10  N4  UNL     1      31.197   8.894  48.655  1.00  0.00    -0.322 N 
HETATM   11  C14 UNL     1      30.611   7.637  48.389  1.00  0.00     0.046 A 
HETATM   12  C15 UNL     1      31.395   6.544  48.080  1.00  0.00     0.030 A 
HETATM   13  C16 UNL     1      30.689   5.365  47.888  1.00  0.00     0.003 A 
HETATM   14  C17 UNL     1      29.302   5.392  48.026  1.00  0.00     0.010 A 
HETATM   15  C18 UNL     1      28.591   6.525  48.341  1.00  0.00    -0.021 A 
HETATM   16  C19 UNL     1      29.244   7.725  48.526  1.00  0.00     0.015 A 
HETATM   17  H18 UNL     1      25.732   9.013  51.582  1.00  0.00     0.153 HD
HETATM   18  H22 UNL     1      32.198   9.198  48.651  1.00  0.00     0.169 HD
ENDROOT
BRANCH   1  19
HETATM   19  N2  UNL     1      27.132   4.975  49.567  1.00  0.00    -0.411 N 
HETATM   20  C4  UNL     1      26.661   3.703  49.606  1.00  0.00     0.144 C 
HETATM   21  H11 UNL     1      27.964   5.104  50.223  1.00  0.00     0.154 HD
BRANCH  20  22
HETATM   22  C3  UNL     1      25.142   3.516  49.521  1.00  0.00     0.290 C 
BRANCH  22  23
HETATM   23  N1  UNL     1      24.713   2.827  50.717  1.00  0.00     0.081 N 
HETATM   24  C1  UNL     1      24.106   3.809  51.595  1.00  0.00     0.309 C 
HETATM   25  C2  UNL     1      25.825   2.215  51.380  1.00  0.00     0.309 C 
ENDBRANCH  22  23
ENDBRANCH  20  22
ENDBRANCH   1  19
BRANCH   2  26
HETATM   26  C7  UNL     1      24.902   6.982  48.991  1.00  0.00     0.046 C 
BRANCH  26  27
HETATM   27  C8  UNL     1      24.413   7.192  47.572  1.00  0.00     0.223 C 
HETATM   28  F1  UNL     1      25.449   7.651  46.792  1.00  0.00    -0.255 F 
ENDBRANCH  26  27
ENDBRANCH   2  26
TORSDOF 5
ENDMDL
