MODEL 1
REMARK VINA RESULT:      -7.7      0.000      0.000
REMARK  3 active torsions:
REMARK  status: ('A' for Active; 'I' for Inactive)
REMARK    1  A    between atoms: C2_2  and  S1_3 
REMARK    2  A    between atoms: S1_3  and  N1_6 
REMARK    3  A    between atoms: C11_19  and  C12_20 
ROOT
HETATM    1  N1  UNL     1      25.160   0.889  53.630  1.00  0.00    -0.202 NA
HETATM    2  C3  UNL     1      25.625   2.263  53.653  1.00  0.00     0.112 C 
HETATM    3  C4  UNL     1      24.534   3.269  53.474  1.00  0.00     0.055 C 
HETATM    4  C5  UNL     1      23.528   2.823  52.516  1.00  0.00    -0.036 C 
HETATM    5  C6  UNL     1      23.390   1.511  52.115  1.00  0.00     0.037 C 
HETATM    6  C7  UNL     1      24.514   0.584  52.350  1.00  0.00     0.157 C 
HETATM    7  S2  UNL     1      21.901   0.759  51.287  1.00  0.00     0.067 SA
HETATM    8  N2  UNL     1      20.364   1.015  51.886  1.00  0.00    -0.190 NA
HETATM    9  C8  UNL     1      19.806   2.344  52.197  1.00  0.00     0.245 C 
HETATM   10  N3  UNL     1      20.295   3.590  52.274  1.00  0.00    -0.224 NA
HETATM   11  C9  UNL     1      21.533   3.995  51.582  1.00  0.00     0.126 C 
HETATM   12  C10 UNL     1      22.770   4.077  52.146  1.00  0.00     0.058 C 
HETATM   13  N4  UNL     1      21.164   4.238  50.202  1.00  0.00    -0.364 N 
HETATM   14  C11 UNL     1      22.032   3.774  49.155  1.00  0.00     0.141 C 
HETATM   15  C18 UNL     1      22.624   2.434  49.393  1.00  0.00     0.216 C 
HETATM   16  O3  UNL     1      21.810   1.374  49.615  1.00  0.00    -0.305 OA
HETATM   17  H12 UNL     1      20.296   4.744  49.931  1.00  0.00     0.162 HD
ENDROOT
BRANCH  14  18
HETATM   18  C12 UNL     1      21.307   3.747  47.866  1.00  0.00    -0.033 A 
HETATM   19  C13 UNL     1      19.958   3.555  47.725  1.00  0.00     0.009 A 
HETATM   20  C14 UNL     1      19.302   3.534  46.514  1.00  0.00     0.001 A 
HETATM   21  C15 UNL     1      20.040   3.715  45.375  1.00  0.00     0.000 A 
HETATM   22  C16 UNL     1      21.401   3.915  45.415  1.00  0.00     0.001 A 
HETATM   23  C17 UNL     1      21.988   3.924  46.665  1.00  0.00     0.009 A 
ENDBRANCH  14  18
BRANCH   1  24
HETATM   24  S1  UNL     1      26.608  -0.090  53.662  1.00  0.00     0.233 S 
HETATM   25  O1  UNL     1      26.760  -0.556  55.095  1.00  0.00    -0.207 OA
HETATM   26  O2  UNL     1      26.400  -1.286  52.778  1.00  0.00    -0.207 OA
BRANCH  24  27
HETATM   27  C2  UNL     1      28.013   0.837  53.171  1.00  0.00     0.115 C 
HETATM   28  C1  UNL     1      29.179   0.886  53.804  1.00  0.00     0.024 C 
ENDBRANCH  24  27
ENDBRANCH   1  24
TORSDOF 3
ENDMDL
MODEL 2
REMARK VINA RESULT:      -7.7      2.197      3.104
REMARK  3 active torsions:
REMARK  status: ('A' for Active; 'I' for Inactive)
REMARK    1  A    between atoms: C2_2  and  S1_3 
REMARK    2  A    between atoms: S1_3  and  N1_6 
REMARK    3  A    between atoms: C11_19  and  C12_20 
ROOT
HETATM    1  N1  UNL     1      25.658   1.037  53.399  1.00  0.00    -0.202 NA
HETATM    2  C3  UNL     1      26.564   0.786  52.293  1.00  0.00     0.112 C 
HETATM    3  C4  UNL     1      26.705   1.944  51.359  1.00  0.00     0.055 C 
HETATM    4  C5  UNL     1      25.443   2.649  51.163  1.00  0.00    -0.036 C 
HETATM    5  C6  UNL     1      24.357   2.511  52.002  1.00  0.00     0.037 C 
HETATM    6  C7  UNL     1      24.313   1.344  52.904  1.00  0.00     0.157 C 
HETATM    7  S2  UNL     1      22.903   3.667  52.126  1.00  0.00     0.067 SA
HETATM    8  N2  UNL     1      23.125   5.318  52.249  1.00  0.00    -0.190 NA
HETATM    9  C8  UNL     1      23.970   6.110  51.338  1.00  0.00     0.245 C 
HETATM   10  N3  UNL     1      24.853   5.830  50.369  1.00  0.00    -0.224 NA
HETATM   11  C9  UNL     1      24.851   4.543  49.649  1.00  0.00     0.126 C 
HETATM   12  C10 UNL     1      25.659   3.479  49.918  1.00  0.00     0.058 C 
HETATM   13  N4  UNL     1      23.805   4.638  48.652  1.00  0.00    -0.364 N 
HETATM   14  C11 UNL     1      22.942   3.509  48.434  1.00  0.00     0.141 C 
HETATM   15  C18 UNL     1      22.532   2.799  49.672  1.00  0.00     0.216 C 
HETATM   16  O3  UNL     1      21.905   3.484  50.658  1.00  0.00    -0.305 OA
HETATM   17  H12 UNL     1      23.652   5.490  48.075  1.00  0.00     0.162 HD
ENDROOT
BRANCH  14  18
HETATM   18  C12 UNL     1      21.725   3.930  47.708  1.00  0.00    -0.033 A 
HETATM   19  C13 UNL     1      20.685   3.106  47.369  1.00  0.00     0.009 A 
HETATM   20  C14 UNL     1      19.559   3.519  46.691  1.00  0.00     0.001 A 
HETATM   21  C15 UNL     1      19.468   4.837  46.332  1.00  0.00     0.000 A 
HETATM   22  C16 UNL     1      20.461   5.742  46.627  1.00  0.00     0.001 A 
HETATM   23  C17 UNL     1      21.559   5.254  47.309  1.00  0.00     0.009 A 
ENDBRANCH  14  18
BRANCH   1  24
HETATM   24  S1  UNL     1      25.506  -0.494  54.229  1.00  0.00     0.233 S 
HETATM   25  O1  UNL     1      26.314  -1.486  53.418  1.00  0.00    -0.207 OA
HETATM   26  O2  UNL     1      26.120  -0.364  55.594  1.00  0.00    -0.207 OA
BRANCH  24  27
HETATM   27  C2  UNL     1      23.832  -1.004  54.322  1.00  0.00     0.115 C 
HETATM   28  C1  UNL     1      23.158  -1.283  55.432  1.00  0.00     0.024 C 
ENDBRANCH  24  27
ENDBRANCH   1  24
TORSDOF 3
ENDMDL
MODEL 3
REMARK VINA RESULT:      -7.5      2.322      3.125
REMARK  3 active torsions:
REMARK  status: ('A' for Active; 'I' for Inactive)
REMARK    1  A    between atoms: C2_2  and  S1_3 
REMARK    2  A    between atoms: S1_3  and  N1_6 
REMARK    3  A    between atoms: C11_19  and  C12_20 
ROOT
HETATM    1  N1  UNL     1      26.846   1.671  53.283  1.00  0.00    -0.202 NA
HETATM    2  C3  UNL     1      27.264   1.302  51.944  1.00  0.00     0.112 C 
HETATM    3  C4  UNL     1      26.639   2.132  50.870  1.00  0.00     0.055 C 
HETATM    4  C5  UNL     1      25.249   2.462  51.169  1.00  0.00    -0.036 C 
HETATM    5  C6  UNL     1      24.697   2.352  52.428  1.00  0.00     0.037 C 
HETATM    6  C7  UNL     1      25.396   1.524  53.431  1.00  0.00     0.157 C 
HETATM    7  S2  UNL     1      23.124   3.155  53.019  1.00  0.00     0.067 SA
HETATM    8  N2  UNL     1      22.830   4.775  52.741  1.00  0.00    -0.190 NA
HETATM    9  C8  UNL     1      22.936   5.423  51.422  1.00  0.00     0.245 C 
HETATM   10  N3  UNL     1      23.398   5.062  50.216  1.00  0.00    -0.224 NA
HETATM   11  C9  UNL     1      23.525   3.649  49.811  1.00  0.00     0.126 C 
HETATM   12  C10 UNL     1      24.670   2.911  49.848  1.00  0.00     0.058 C 
HETATM   13  N4  UNL     1      22.198   3.219  49.418  1.00  0.00    -0.364 N 
HETATM   14  C11 UNL     1      21.736   1.920  49.825  1.00  0.00     0.141 C 
HETATM   15  C18 UNL     1      22.108   1.539  51.211  1.00  0.00     0.216 C 
HETATM   16  O3  UNL     1      21.742   2.336  52.243  1.00  0.00    -0.305 OA
HETATM   17  H12 UNL     1      21.562   3.808  48.844  1.00  0.00     0.162 HD
ENDROOT
BRANCH  14  18
HETATM   18  C12 UNL     1      20.266   1.837  49.692  1.00  0.00    -0.033 A 
HETATM   19  C13 UNL     1      19.480   0.856  50.235  1.00  0.00     0.009 A 
HETATM   20  C14 UNL     1      18.110   0.798  50.098  1.00  0.00     0.001 A 
HETATM   21  C15 UNL     1      17.490   1.782  49.376  1.00  0.00     0.000 A 
HETATM   22  C16 UNL     1      18.194   2.809  48.792  1.00  0.00     0.001 A 
HETATM   23  C17 UNL     1      19.564   2.801  48.972  1.00  0.00     0.009 A 
ENDBRANCH  14  18
BRANCH   1  24
HETATM   24  S1  UNL     1      27.543   0.461  54.335  1.00  0.00     0.233 S 
HETATM   25  O1  UNL     1      28.535   1.197  55.211  1.00  0.00    -0.207 OA
HETATM   26  O2  UNL     1      26.456  -0.109  55.200  1.00  0.00    -0.207 OA
BRANCH  24  27
HETATM   27  C2  UNL     1      28.355  -0.791  53.414  1.00  0.00     0.115 C 
HETATM   28  C1  UNL     1      29.654  -1.062  53.436  1.00  0.00     0.024 C 
ENDBRANCH  24  27
ENDBRANCH   1  24
TORSDOF 3
ENDMDL
MODEL 4
REMARK VINA RESULT:      -7.5      3.860      6.885
REMARK  3 active torsions:
REMARK  status: ('A' for Active; 'I' for Inactive)
REMARK    1  A    between atoms: C2_2  and  S1_3 
REMARK    2  A    between atoms: S1_3  and  N1_6 
REMARK    3  A    between atoms: C11_19  and  C12_20 
ROOT
HETATM    1  N1  UNL     1      19.025   2.674  51.677  1.00  0.00    -0.202 NA
HETATM    2  C3  UNL     1      19.336   1.536  50.833  1.00  0.00     0.112 C 
HETATM    3  C4  UNL     1      20.745   1.057  50.966  1.00  0.00     0.055 C 
HETATM    4  C5  UNL     1      21.686   2.159  51.133  1.00  0.00    -0.036 C 
HETATM    5  C6  UNL     1      21.307   3.434  51.498  1.00  0.00     0.037 C 
HETATM    6  C7  UNL     1      19.888   3.812  51.348  1.00  0.00     0.157 C 
HETATM    7  S2  UNL     1      22.416   4.766  52.177  1.00  0.00     0.067 SA
HETATM    8  N2  UNL     1      23.486   4.443  53.418  1.00  0.00    -0.190 NA
HETATM    9  C8  UNL     1      24.446   3.325  53.416  1.00  0.00     0.245 C 
HETATM   10  N3  UNL     1      24.653   2.247  52.646  1.00  0.00    -0.224 NA
HETATM   11  C9  UNL     1      24.179   2.172  51.251  1.00  0.00     0.126 C 
HETATM   12  C10 UNL     1      23.038   1.556  50.831  1.00  0.00     0.058 C 
HETATM   13  N4  UNL     1      25.140   2.909  50.456  1.00  0.00    -0.364 N 
HETATM   14  C11 UNL     1      24.664   3.779  49.415  1.00  0.00     0.141 C 
HETATM   15  C18 UNL     1      23.450   4.556  49.768  1.00  0.00     0.216 C 
HETATM   16  O3  UNL     1      23.464   5.358  50.860  1.00  0.00    -0.305 OA
HETATM   17  H12 UNL     1      26.167   2.832  50.599  1.00  0.00     0.162 HD
ENDROOT
BRANCH  14  18
HETATM   18  C12 UNL     1      25.728   4.723  49.014  1.00  0.00    -0.033 A 
HETATM   19  C13 UNL     1      25.526   6.024  48.639  1.00  0.00     0.009 A 
HETATM   20  C14 UNL     1      26.533   6.888  48.268  1.00  0.00     0.001 A 
HETATM   21  C15 UNL     1      27.821   6.422  48.274  1.00  0.00     0.000 A 
HETATM   22  C16 UNL     1      28.124   5.130  48.636  1.00  0.00     0.001 A 
HETATM   23  C17 UNL     1      27.062   4.323  48.995  1.00  0.00     0.009 A 
ENDBRANCH  14  18
BRANCH   1  24
HETATM   24  S1  UNL     1      17.413   3.168  51.214  1.00  0.00     0.233 S 
HETATM   25  O1  UNL     1      16.912   4.049  52.339  1.00  0.00    -0.207 OA
HETATM   26  O2  UNL     1      17.501   3.983  49.957  1.00  0.00    -0.207 OA
BRANCH  24  27
HETATM   27  C2  UNL     1      16.358   1.782  51.010  1.00  0.00     0.115 C 
HETATM   28  C1  UNL     1      15.679   1.166  51.970  1.00  0.00     0.024 C 
ENDBRANCH  24  27
ENDBRANCH   1  24
TORSDOF 3
ENDMDL
MODEL 5
REMARK VINA RESULT:      -7.4      3.396      7.128
REMARK  3 active torsions:
REMARK  status: ('A' for Active; 'I' for Inactive)
REMARK    1  A    between atoms: C2_2  and  S1_3 
REMARK    2  A    between atoms: S1_3  and  N1_6 
REMARK    3  A    between atoms: C11_19  and  C12_20 
ROOT
HETATM    1  N1  UNL     1      22.079   6.019  48.497  1.00  0.00    -0.202 NA
HETATM    2  C3  UNL     1      22.629   5.054  47.564  1.00  0.00     0.112 C 
HETATM    3  C4  UNL     1      21.995   3.704  47.653  1.00  0.00     0.055 C 
HETATM    4  C5  UNL     1      21.678   3.335  49.028  1.00  0.00    -0.036 C 
HETATM    5  C6  UNL     1      21.618   4.244  50.064  1.00  0.00     0.037 C 
HETATM    6  C7  UNL     1      22.258   5.561  49.878  1.00  0.00     0.157 C 
HETATM    7  S2  UNL     1      20.796   3.986  51.714  1.00  0.00     0.067 SA
HETATM    8  N2  UNL     1      19.249   3.367  51.817  1.00  0.00    -0.190 NA
HETATM    9  C8  UNL     1      18.804   2.133  51.144  1.00  0.00     0.245 C 
HETATM   10  N3  UNL     1      19.324   1.305  50.227  1.00  0.00    -0.224 NA
HETATM   11  C9  UNL     1      20.776   1.213  49.982  1.00  0.00     0.126 C 
HETATM   12  C10 UNL     1      21.456   1.841  48.982  1.00  0.00     0.058 C 
HETATM   13  N4  UNL     1      21.311   0.368  51.030  1.00  0.00    -0.364 N 
HETATM   14  C11 UNL     1      22.550   0.735  51.659  1.00  0.00     0.141 C 
HETATM   15  C18 UNL     1      22.704   2.188  51.919  1.00  0.00     0.216 C 
HETATM   16  O3  UNL     1      21.775   2.835  52.663  1.00  0.00    -0.305 OA
HETATM   17  H12 UNL     1      20.840  -0.504  51.348  1.00  0.00     0.162 HD
ENDROOT
BRANCH  14  18
HETATM   18  C12 UNL     1      22.709   0.008  52.936  1.00  0.00    -0.033 A 
HETATM   19  C13 UNL     1      21.682  -0.503  53.685  1.00  0.00     0.009 A 
HETATM   20  C14 UNL     1      21.851  -1.178  54.874  1.00  0.00     0.001 A 
HETATM   21  C15 UNL     1      23.126  -1.353  55.342  1.00  0.00     0.000 A 
HETATM   22  C16 UNL     1      24.222  -0.876  54.661  1.00  0.00     0.001 A 
HETATM   23  C17 UNL     1      23.973  -0.210  53.476  1.00  0.00     0.009 A 
ENDBRANCH  14  18
BRANCH   1  24
HETATM   24  S1  UNL     1      23.090   7.437  48.346  1.00  0.00     0.233 S 
HETATM   25  O1  UNL     1      24.280   7.009  47.513  1.00  0.00    -0.207 OA
HETATM   26  O2  UNL     1      22.327   8.495  47.602  1.00  0.00    -0.207 OA
BRANCH  24  27
HETATM   27  C2  UNL     1      23.620   8.010  49.916  1.00  0.00     0.115 C 
HETATM   28  C1  UNL     1      24.840   8.436  50.224  1.00  0.00     0.024 C 
ENDBRANCH  24  27
ENDBRANCH   1  24
TORSDOF 3
ENDMDL
MODEL 6
REMARK VINA RESULT:      -7.4      5.074      7.155
REMARK  3 active torsions:
REMARK  status: ('A' for Active; 'I' for Inactive)
REMARK    1  A    between atoms: C2_2  and  S1_3 
REMARK    2  A    between atoms: S1_3  and  N1_6 
REMARK    3  A    between atoms: C11_19  and  C12_20 
ROOT
HETATM    1  N1  UNL     1      25.457   8.645  49.035  1.00  0.00    -0.202 NA
HETATM    2  C3  UNL     1      25.707   7.891  47.821  1.00  0.00     0.112 C 
HETATM    3  C4  UNL     1      24.641   6.893  47.504  1.00  0.00     0.055 C 
HETATM    4  C5  UNL     1      24.116   6.250  48.704  1.00  0.00    -0.036 C 
HETATM    5  C6  UNL     1      24.298   6.751  49.976  1.00  0.00     0.037 C 
HETATM    6  C7  UNL     1      25.366   7.747  50.191  1.00  0.00     0.157 C 
HETATM    7  S2  UNL     1      23.319   6.297  51.493  1.00  0.00     0.067 SA
HETATM    8  N2  UNL     1      21.650   6.260  51.460  1.00  0.00    -0.190 NA
HETATM    9  C8  UNL     1      20.857   5.536  50.451  1.00  0.00     0.245 C 
HETATM   10  N3  UNL     1      21.125   4.909  49.297  1.00  0.00    -0.224 NA
HETATM   11  C9  UNL     1      22.469   4.395  48.973  1.00  0.00     0.126 C 
HETATM   12  C10 UNL     1      23.395   5.023  48.196  1.00  0.00     0.058 C 
HETATM   13  N4  UNL     1      22.600   3.134  49.675  1.00  0.00    -0.364 N 
HETATM   14  C11 UNL     1      23.841   2.828  50.333  1.00  0.00     0.141 C 
HETATM   15  C18 UNL     1      24.468   3.977  51.034  1.00  0.00     0.216 C 
HETATM   16  O3  UNL     1      23.768   4.642  51.984  1.00  0.00    -0.305 OA
HETATM   17  H12 UNL     1      21.836   2.431  49.719  1.00  0.00     0.162 HD
ENDROOT
BRANCH  14  18
HETATM   18  C12 UNL     1      23.645   1.732  51.306  1.00  0.00    -0.033 A 
HETATM   19  C13 UNL     1      24.618   1.218  52.121  1.00  0.00     0.009 A 
HETATM   20  C14 UNL     1      24.413   0.196  53.022  1.00  0.00     0.001 A 
HETATM   21  C15 UNL     1      23.158  -0.343  53.114  1.00  0.00     0.000 A 
HETATM   22  C16 UNL     1      22.115   0.106  52.338  1.00  0.00     0.001 A 
HETATM   23  C17 UNL     1      22.397   1.133  51.458  1.00  0.00     0.009 A 
ENDBRANCH  14  18
BRANCH   1  24
HETATM   24  S1  UNL     1      26.905   9.590  49.299  1.00  0.00     0.233 S 
HETATM   25  O1  UNL     1      26.539  11.014  48.934  1.00  0.00    -0.207 OA
HETATM   26  O2  UNL     1      27.257   9.535  50.757  1.00  0.00    -0.207 OA
BRANCH  24  27
HETATM   27  C2  UNL     1      28.226   9.024  48.295  1.00  0.00     0.115 C 
HETATM   28  C1  UNL     1      29.520   9.119  48.577  1.00  0.00     0.024 C 
ENDBRANCH  24  27
ENDBRANCH   1  24
TORSDOF 3
ENDMDL
MODEL 7
REMARK VINA RESULT:      -7.2      2.547      3.573
REMARK  3 active torsions:
REMARK  status: ('A' for Active; 'I' for Inactive)
REMARK    1  A    between atoms: C2_2  and  S1_3 
REMARK    2  A    between atoms: S1_3  and  N1_6 
REMARK    3  A    between atoms: C11_19  and  C12_20 
ROOT
HETATM    1  N1  UNL     1      26.231   2.910  51.999  1.00  0.00    -0.202 NA
HETATM    2  C3  UNL     1      26.501   2.503  50.633  1.00  0.00     0.112 C 
HETATM    3  C4  UNL     1      25.599   3.142  49.628  1.00  0.00     0.055 C 
HETATM    4  C5  UNL     1      24.234   3.281  50.124  1.00  0.00    -0.036 C 
HETATM    5  C6  UNL     1      23.898   3.190  51.459  1.00  0.00     0.037 C 
HETATM    6  C7  UNL     1      24.861   2.558  52.382  1.00  0.00     0.157 C 
HETATM    7  S2  UNL     1      22.321   3.792  52.245  1.00  0.00     0.067 SA
HETATM    8  N2  UNL     1      21.733   5.322  51.928  1.00  0.00    -0.190 NA
HETATM    9  C8  UNL     1      21.537   5.871  50.574  1.00  0.00     0.245 C 
HETATM   10  N3  UNL     1      21.868   5.489  49.333  1.00  0.00    -0.224 NA
HETATM   11  C9  UNL     1      22.160   4.084  48.992  1.00  0.00     0.126 C 
HETATM   12  C10 UNL     1      23.401   3.532  48.888  1.00  0.00     0.058 C 
HETATM   13  N4  UNL     1      20.877   3.430  48.837  1.00  0.00    -0.364 N 
HETATM   14  C11 UNL     1      20.694   2.113  49.383  1.00  0.00     0.141 C 
HETATM   15  C18 UNL     1      21.323   1.903  50.712  1.00  0.00     0.216 C 
HETATM   16  O3  UNL     1      20.990   2.715  51.743  1.00  0.00    -0.305 OA
HETATM   17  H12 UNL     1      20.076   3.869  48.340  1.00  0.00     0.162 HD
ENDROOT
BRANCH  14  18
HETATM   18  C12 UNL     1      19.254   1.799  49.488  1.00  0.00    -0.033 A 
HETATM   19  C13 UNL     1      18.239   2.591  49.020  1.00  0.00     0.009 A 
HETATM   20  C14 UNL     1      16.901   2.280  49.128  1.00  0.00     0.001 A 
HETATM   21  C15 UNL     1      16.558   1.105  49.741  1.00  0.00     0.000 A 
HETATM   22  C16 UNL     1      17.505   0.243  50.244  1.00  0.00     0.001 A 
HETATM   23  C17 UNL     1      18.826   0.623  50.098  1.00  0.00     0.009 A 
ENDBRANCH  14  18
BRANCH   1  24
HETATM   24  S1  UNL     1      27.261   1.905  52.994  1.00  0.00     0.233 S 
HETATM   25  O1  UNL     1      28.653   2.486  52.865  1.00  0.00    -0.207 OA
HETATM   26  O2  UNL     1      26.813   2.021  54.422  1.00  0.00    -0.207 OA
BRANCH  24  27
HETATM   27  C2  UNL     1      27.242   0.240  52.447  1.00  0.00     0.115 C 
HETATM   28  C1  UNL     1      27.506  -0.831  53.187  1.00  0.00     0.024 C 
ENDBRANCH  24  27
ENDBRANCH   1  24
TORSDOF 3
ENDMDL
MODEL 8
REMARK VINA RESULT:      -7.0      3.803      7.413
REMARK  3 active torsions:
REMARK  status: ('A' for Active; 'I' for Inactive)
REMARK    1  A    between atoms: C2_2  and  S1_3 
REMARK    2  A    between atoms: S1_3  and  N1_6 
REMARK    3  A    between atoms: C11_19  and  C12_20 
ROOT
HETATM    1  N1  UNL     1      16.889   2.600  51.553  1.00  0.00    -0.202 NA
HETATM    2  C3  UNL     1      16.787   2.158  50.175  1.00  0.00     0.112 C 
HETATM    3  C4  UNL     1      17.966   1.366  49.710  1.00  0.00     0.055 C 
HETATM    4  C5  UNL     1      19.220   1.878  50.253  1.00  0.00    -0.036 C 
HETATM    5  C6  UNL     1      19.288   2.729  51.337  1.00  0.00     0.037 C 
HETATM    6  C7  UNL     1      18.066   3.455  51.735  1.00  0.00     0.157 C 
HETATM    7  S2  UNL     1      20.790   3.070  52.382  1.00  0.00     0.067 SA
HETATM    8  N2  UNL     1      21.732   1.821  52.967  1.00  0.00    -0.190 NA
HETATM    9  C8  UNL     1      22.274   0.733  52.135  1.00  0.00     0.245 C 
HETATM   10  N3  UNL     1      22.097   0.317  50.873  1.00  0.00    -0.224 NA
HETATM   11  C9  UNL     1      21.583   1.206  49.815  1.00  0.00     0.126 C 
HETATM   12  C10 UNL     1      20.292   1.266  49.382  1.00  0.00     0.058 C 
HETATM   13  N4  UNL     1      22.708   2.008  49.379  1.00  0.00    -0.364 N 
HETATM   14  C11 UNL     1      22.511   3.411  49.131  1.00  0.00     0.141 C 
HETATM   15  C18 UNL     1      21.627   4.093  50.109  1.00  0.00     0.216 C 
HETATM   16  O3  UNL     1      21.934   4.051  51.428  1.00  0.00    -0.305 OA
HETATM   17  H12 UNL     1      23.658   1.613  49.229  1.00  0.00     0.162 HD
ENDROOT
BRANCH  14  18
HETATM   18  C12 UNL     1      23.813   4.111  49.103  1.00  0.00    -0.033 A 
HETATM   19  C13 UNL     1      23.999   5.413  48.720  1.00  0.00     0.009 A 
HETATM   20  C14 UNL     1      25.222   6.047  48.702  1.00  0.00     0.001 A 
HETATM   21  C15 UNL     1      26.325   5.336  49.092  1.00  0.00     0.000 A 
HETATM   22  C16 UNL     1      26.239   4.023  49.493  1.00  0.00     0.001 A 
HETATM   23  C17 UNL     1      24.980   3.455  49.485  1.00  0.00     0.009 A 
ENDBRANCH  14  18
BRANCH   1  24
HETATM   24  S1  UNL     1      15.513   3.649  51.805  1.00  0.00     0.233 S 
HETATM   25  O1  UNL     1      15.870   4.521  52.991  1.00  0.00    -0.207 OA
HETATM   26  O2  UNL     1      15.341   4.519  50.593  1.00  0.00    -0.207 OA
BRANCH  24  27
HETATM   27  C2  UNL     1      14.062   2.724  52.144  1.00  0.00     0.115 C 
HETATM   28  C1  UNL     1      13.921   1.810  53.097  1.00  0.00     0.024 C 
ENDBRANCH  24  27
ENDBRANCH   1  24
TORSDOF 3
ENDMDL
MODEL 9
REMARK VINA RESULT:      -7.0      9.542     10.746
REMARK  3 active torsions:
REMARK  status: ('A' for Active; 'I' for Inactive)
REMARK    1  A    between atoms: C2_2  and  S1_3 
REMARK    2  A    between atoms: S1_3  and  N1_6 
REMARK    3  A    between atoms: C11_19  and  C12_20 
ROOT
HETATM    1  N1  UNL     1      33.427   6.555  45.033  1.00  0.00    -0.202 NA
HETATM    2  C3  UNL     1      32.572   7.158  44.028  1.00  0.00     0.112 C 
HETATM    3  C4  UNL     1      31.660   8.210  44.569  1.00  0.00     0.055 C 
HETATM    4  C5  UNL     1      31.151   7.867  45.893  1.00  0.00    -0.036 C 
HETATM    5  C6  UNL     1      31.719   6.902  46.699  1.00  0.00     0.037 C 
HETATM    6  C7  UNL     1      32.624   5.915  46.078  1.00  0.00     0.157 C 
HETATM    7  S2  UNL     1      31.463   6.702  48.532  1.00  0.00     0.067 SA
HETATM    8  N2  UNL     1      31.580   8.009  49.564  1.00  0.00    -0.190 NA
HETATM    9  C8  UNL     1      30.866   9.284  49.371  1.00  0.00     0.245 C 
HETATM   10  N3  UNL     1      30.139   9.831  48.387  1.00  0.00    -0.224 NA
HETATM   11  C9  UNL     1      29.481   9.018  47.347  1.00  0.00     0.126 C 
HETATM   12  C10 UNL     1      29.965   8.782  46.096  1.00  0.00     0.058 C 
HETATM   13  N4  UNL     1      28.264   8.505  47.944  1.00  0.00    -0.364 N 
HETATM   14  C11 UNL     1      27.889   7.139  47.701  1.00  0.00     0.141 C 
HETATM   15  C18 UNL     1      29.020   6.176  47.714  1.00  0.00     0.216 C 
HETATM   16  O3  UNL     1      29.810   6.091  48.811  1.00  0.00    -0.305 OA
HETATM   17  H12 UNL     1      27.640   9.086  48.540  1.00  0.00     0.162 HD
ENDROOT
BRANCH  14  18
HETATM   18  C12 UNL     1      26.886   6.701  48.694  1.00  0.00    -0.033 A 
HETATM   19  C13 UNL     1      26.443   5.414  48.853  1.00  0.00     0.009 A 
HETATM   20  C14 UNL     1      25.507   5.027  49.786  1.00  0.00     0.001 A 
HETATM   21  C15 UNL     1      24.982   5.986  50.612  1.00  0.00     0.000 A 
HETATM   22  C16 UNL     1      25.363   7.305  50.529  1.00  0.00     0.001 A 
HETATM   23  C17 UNL     1      26.307   7.617  49.569  1.00  0.00     0.009 A 
ENDBRANCH  14  18
BRANCH   1  24
HETATM   24  S1  UNL     1      34.250   5.246  44.215  1.00  0.00     0.233 S 
HETATM   25  O1  UNL     1      33.161   4.415  43.569  1.00  0.00    -0.207 OA
HETATM   26  O2  UNL     1      35.126   5.824  43.142  1.00  0.00    -0.207 OA
BRANCH  24  27
HETATM   27  C2  UNL     1      35.171   4.271  45.344  1.00  0.00     0.115 C 
HETATM   28  C1  UNL     1      34.812   3.091  45.835  1.00  0.00     0.024 C 
ENDBRANCH  24  27
ENDBRANCH   1  24
TORSDOF 3
ENDMDL
