MODEL 1
REMARK VINA RESULT:      -8.3      0.000      0.000
REMARK  3 active torsions:
REMARK  status: ('A' for Active; 'I' for Inactive)
REMARK    1  A    between atoms: O1_2  and  C2_3 
REMARK    2  A    between atoms: C11_14  and  N2_15 
REMARK    3  A    between atoms: N2_15  and  C12_16 
ROOT
HETATM    1  C2  UNL     1      22.554  -0.164  53.735  1.00  0.00     0.211 C 
HETATM    2  C3  UNL     1      23.904  -0.785  53.791  1.00  0.00     0.061 C 
HETATM    3  C4  UNL     1      25.077   0.165  53.804  1.00  0.00     0.036 C 
HETATM    4  C5  UNL     1      25.844  -0.142  55.074  1.00  0.00     0.121 C 
HETATM    5  N1  UNL     1      27.134   0.372  55.033  1.00  0.00    -0.421 N 
HETATM    6  C6  UNL     1      27.993  -0.066  53.990  1.00  0.00     0.116 C 
HETATM    7  C7  UNL     1      27.312  -0.376  52.698  1.00  0.00     0.052 C 
HETATM    8  C8  UNL     1      25.901   0.058  52.576  1.00  0.00     0.135 C 
HETATM    9  O2  UNL     1      25.778   1.266  51.887  1.00  0.00    -0.357 OA
HETATM   10  C9  UNL     1      26.790   2.052  51.471  1.00  0.00     0.139 C 
HETATM   11  C10 UNL     1      25.837   2.783  50.854  1.00  0.00     0.074 C 
HETATM   12  C11 UNL     1      24.358   2.691  50.737  1.00  0.00     0.131 C 
HETATM   13  N3  UNL     1      23.944   1.712  51.366  1.00  0.00    -0.225 NA
HETATM   14  C18 UNL     1      22.754   1.116  51.635  1.00  0.00     0.399 C 
HETATM   15  N4  UNL     1      22.197   0.421  52.484  1.00  0.00    -0.380 NA
HETATM   16  H10 UNL     1      27.559   0.792  55.844  1.00  0.00     0.153 HD
ENDROOT
BRANCH  12  17
HETATM   17  N2  UNL     1      23.554   3.630  49.987  1.00  0.00    -0.341 N 
HETATM   18  H18 UNL     1      22.797   3.158  49.409  1.00  0.00     0.167 HD
BRANCH  17  19
HETATM   19  C12 UNL     1      23.916   5.009  50.154  1.00  0.00     0.035 A 
HETATM   20  C13 UNL     1      23.751   5.823  51.252  1.00  0.00     0.032 A 
HETATM   21  C14 UNL     1      24.166   7.135  51.207  1.00  0.00     0.046 A 
HETATM   22  C15 UNL     1      24.745   7.598  50.039  1.00  0.00     0.138 A 
HETATM   23  F1  UNL     1      25.164   8.905  49.977  1.00  0.00    -0.204 F 
HETATM   24  C16 UNL     1      24.933   6.824  48.914  1.00  0.00     0.074 A 
HETATM   25 CL1  UNL     1      25.674   7.469  47.463  1.00  0.00    -0.081 Cl
HETATM   26  C17 UNL     1      24.507   5.509  48.987  1.00  0.00     0.056 A 
ENDBRANCH  17  19
ENDBRANCH  12  17
BRANCH   1  27
HETATM   27  O1  UNL     1      21.596  -1.234  53.869  1.00  0.00    -0.372 OA
HETATM   28  C1  UNL     1      20.314  -0.666  53.829  1.00  0.00     0.204 C 
ENDBRANCH   1  27
TORSDOF 3
ENDMDL
MODEL 2
REMARK VINA RESULT:      -8.3      4.046      6.696
REMARK  3 active torsions:
REMARK  status: ('A' for Active; 'I' for Inactive)
REMARK    1  A    between atoms: O1_2  and  C2_3 
REMARK    2  A    between atoms: C11_14  and  N2_15 
REMARK    3  A    between atoms: N2_15  and  C12_16 
ROOT
HETATM    1  C2  UNL     1      21.152   0.228  51.975  1.00  0.00     0.211 C 
HETATM    2  C3  UNL     1      20.878   1.267  50.948  1.00  0.00     0.061 C 
HETATM    3  C4  UNL     1      21.989   1.547  49.967  1.00  0.00     0.036 C 
HETATM    4  C5  UNL     1      21.405   1.284  48.594  1.00  0.00     0.121 C 
HETATM    5  N1  UNL     1      22.172   1.861  47.589  1.00  0.00    -0.421 N 
HETATM    6  C6  UNL     1      22.367   3.267  47.623  1.00  0.00     0.116 C 
HETATM    7  C7  UNL     1      22.424   3.864  48.990  1.00  0.00     0.052 C 
HETATM    8  C8  UNL     1      22.543   2.914  50.120  1.00  0.00     0.135 C 
HETATM    9  O2  UNL     1      23.861   2.780  50.562  1.00  0.00    -0.357 OA
HETATM   10  C9  UNL     1      24.952   3.325  49.988  1.00  0.00     0.139 C 
HETATM   11  C10 UNL     1      25.628   2.853  51.059  1.00  0.00     0.074 C 
HETATM   12  C11 UNL     1      25.257   2.087  52.277  1.00  0.00     0.131 C 
HETATM   13  N3  UNL     1      24.047   1.841  52.269  1.00  0.00    -0.225 NA
HETATM   14  C18 UNL     1      23.142   1.206  53.059  1.00  0.00     0.399 C 
HETATM   15  N4  UNL     1      22.071   0.603  53.000  1.00  0.00    -0.380 NA
HETATM   16  H10 UNL     1      22.337   1.386  46.716  1.00  0.00     0.153 HD
ENDROOT
BRANCH  12  17
HETATM   17  N2  UNL     1      26.203   1.704  53.300  1.00  0.00    -0.341 N 
HETATM   18  H18 UNL     1      26.344   2.458  54.037  1.00  0.00     0.167 HD
BRANCH  17  19
HETATM   19  C12 UNL     1      26.773   0.396  53.143  1.00  0.00     0.035 A 
HETATM   20  C13 UNL     1      26.178  -0.761  52.693  1.00  0.00     0.032 A 
HETATM   21  C14 UNL     1      26.905  -1.928  52.621  1.00  0.00     0.046 A 
HETATM   22  C15 UNL     1      28.233  -1.896  53.010  1.00  0.00     0.138 A 
HETATM   23  F1  UNL     1      28.973  -3.052  52.945  1.00  0.00    -0.204 F 
HETATM   24  C16 UNL     1      28.874  -0.765  53.466  1.00  0.00     0.074 A 
HETATM   25 CL1  UNL     1      30.559  -0.788  53.945  1.00  0.00    -0.081 Cl
HETATM   26  C17 UNL     1      28.118   0.395  53.528  1.00  0.00     0.056 A 
ENDBRANCH  17  19
ENDBRANCH  12  17
BRANCH   1  27
HETATM   27  O1  UNL     1      19.925   0.029  52.708  1.00  0.00    -0.372 OA
HETATM   28  C1  UNL     1      18.873   0.019  51.780  1.00  0.00     0.204 C 
ENDBRANCH   1  27
TORSDOF 3
ENDMDL
MODEL 3
REMARK VINA RESULT:      -8.3      2.108      4.027
REMARK  3 active torsions:
REMARK  status: ('A' for Active; 'I' for Inactive)
REMARK    1  A    between atoms: O1_2  and  C2_3 
REMARK    2  A    between atoms: C11_14  and  N2_15 
REMARK    3  A    between atoms: N2_15  and  C12_16 
ROOT
HETATM    1  C2  UNL     1      26.745   0.035  53.622  1.00  0.00     0.211 C 
HETATM    2  C3  UNL     1      25.340   0.244  54.064  1.00  0.00     0.061 C 
HETATM    3  C4  UNL     1      24.293   0.263  52.977  1.00  0.00     0.036 C 
HETATM    4  C5  UNL     1      23.315  -0.840  53.325  1.00  0.00     0.121 C 
HETATM    5  N1  UNL     1      22.112  -0.694  52.646  1.00  0.00    -0.421 N 
HETATM    6  C6  UNL     1      21.375   0.504  52.846  1.00  0.00     0.116 C 
HETATM    7  C7  UNL     1      22.202   1.722  53.092  1.00  0.00     0.052 C 
HETATM    8  C8  UNL     1      23.655   1.595  52.834  1.00  0.00     0.135 C 
HETATM    9  O2  UNL     1      24.016   2.095  51.582  1.00  0.00    -0.357 OA
HETATM   10  C9  UNL     1      23.172   2.537  50.628  1.00  0.00     0.139 C 
HETATM   11  C10 UNL     1      24.284   2.918  49.962  1.00  0.00     0.074 C 
HETATM   12  C11 UNL     1      25.744   2.846  50.232  1.00  0.00     0.131 C 
HETATM   13  N3  UNL     1      25.945   2.302  51.322  1.00  0.00    -0.225 NA
HETATM   14  C18 UNL     1      27.007   1.956  52.095  1.00  0.00     0.399 C 
HETATM   15  N4  UNL     1      27.349   1.139  52.949  1.00  0.00    -0.380 NA
HETATM   16  H10 UNL     1      21.621  -1.489  52.270  1.00  0.00     0.153 HD
ENDROOT
BRANCH  12  17
HETATM   17  N2  UNL     1      26.750   3.351  49.326  1.00  0.00    -0.341 N 
HETATM   18  H18 UNL     1      27.326   2.579  48.875  1.00  0.00     0.167 HD
BRANCH  17  19
HETATM   19  C12 UNL     1      26.792   4.780  49.199  1.00  0.00     0.035 A 
HETATM   20  C13 UNL     1      25.913   5.721  49.687  1.00  0.00     0.032 A 
HETATM   21  C14 UNL     1      26.132   7.059  49.447  1.00  0.00     0.046 A 
HETATM   22  C15 UNL     1      27.247   7.418  48.711  1.00  0.00     0.138 A 
HETATM   23  F1  UNL     1      27.479   8.749  48.462  1.00  0.00    -0.204 F 
HETATM   24  C16 UNL     1      28.155   6.516  48.202  1.00  0.00     0.074 A 
HETATM   25 CL1  UNL     1      29.550   7.033  47.276  1.00  0.00    -0.081 Cl
HETATM   26  C17 UNL     1      27.911   5.177  48.458  1.00  0.00     0.056 A 
ENDBRANCH  17  19
ENDBRANCH  12  17
BRANCH   1  27
HETATM   27  O1  UNL     1      27.545  -0.084  54.816  1.00  0.00    -0.372 OA
HETATM   28  C1  UNL     1      28.890   0.055  54.443  1.00  0.00     0.204 C 
ENDBRANCH   1  27
TORSDOF 3
ENDMDL
MODEL 4
REMARK VINA RESULT:      -8.2      3.706      7.386
REMARK  3 active torsions:
REMARK  status: ('A' for Active; 'I' for Inactive)
REMARK    1  A    between atoms: O1_2  and  C2_3 
REMARK    2  A    between atoms: C11_14  and  N2_15 
REMARK    3  A    between atoms: N2_15  and  C12_16 
ROOT
HETATM    1  C2  UNL     1      24.969   4.344  49.978  1.00  0.00     0.211 C 
HETATM    2  C3  UNL     1      23.945   3.841  49.023  1.00  0.00     0.061 C 
HETATM    3  C4  UNL     1      22.651   3.353  49.626  1.00  0.00     0.036 C 
HETATM    4  C5  UNL     1      21.558   4.192  48.997  1.00  0.00     0.121 C 
HETATM    5  N1  UNL     1      20.306   3.612  49.156  1.00  0.00    -0.421 N 
HETATM    6  C6  UNL     1      20.101   2.312  48.622  1.00  0.00     0.116 C 
HETATM    7  C7  UNL     1      21.302   1.425  48.640  1.00  0.00     0.052 C 
HETATM    8  C8  UNL     1      22.457   1.895  49.438  1.00  0.00     0.135 C 
HETATM    9  O2  UNL     1      22.502   1.304  50.703  1.00  0.00    -0.357 OA
HETATM   10  C9  UNL     1      21.566   0.494  51.236  1.00  0.00     0.139 C 
HETATM   11  C10 UNL     1      22.439   0.320  52.253  1.00  0.00     0.074 C 
HETATM   12  C11 UNL     1      23.800   0.831  52.564  1.00  0.00     0.131 C 
HETATM   13  N3  UNL     1      24.183   1.587  51.665  1.00  0.00    -0.225 NA
HETATM   14  C18 UNL     1      25.280   2.335  51.376  1.00  0.00     0.399 C 
HETATM   15  N4  UNL     1      25.618   3.348  50.765  1.00  0.00    -0.380 NA
HETATM   16  H10 UNL     1      19.492   4.167  49.362  1.00  0.00     0.153 HD
ENDROOT
BRANCH  12  17
HETATM   17  N2  UNL     1      24.537   0.471  53.753  1.00  0.00    -0.341 N 
HETATM   18  H18 UNL     1      24.004   0.681  54.649  1.00  0.00     0.167 HD
BRANCH  17  19
HETATM   19  C12 UNL     1      25.833  -0.098  53.517  1.00  0.00     0.035 A 
HETATM   20  C13 UNL     1      26.163  -1.273  52.879  1.00  0.00     0.032 A 
HETATM   21  C14 UNL     1      27.483  -1.647  52.760  1.00  0.00     0.046 A 
HETATM   22  C15 UNL     1      28.449  -0.813  53.295  1.00  0.00     0.138 A 
HETATM   23  F1  UNL     1      29.771  -1.172  53.185  1.00  0.00    -0.204 F 
HETATM   24  C16 UNL     1      28.172   0.372  53.940  1.00  0.00     0.074 A 
HETATM   25 CL1  UNL     1      29.441   1.386  54.596  1.00  0.00    -0.081 Cl
HETATM   26  C17 UNL     1      26.836   0.724  54.046  1.00  0.00     0.056 A 
ENDBRANCH  17  19
ENDBRANCH  12  17
BRANCH   1  27
HETATM   27  O1  UNL     1      26.051   4.878  49.187  1.00  0.00    -0.372 OA
HETATM   28  C1  UNL     1      26.028   6.274  49.322  1.00  0.00     0.204 C 
ENDBRANCH   1  27
TORSDOF 3
ENDMDL
MODEL 5
REMARK VINA RESULT:      -8.1      2.379      2.830
REMARK  3 active torsions:
REMARK  status: ('A' for Active; 'I' for Inactive)
REMARK    1  A    between atoms: O1_2  and  C2_3 
REMARK    2  A    between atoms: C11_14  and  N2_15 
REMARK    3  A    between atoms: N2_15  and  C12_16 
ROOT
HETATM    1  C2  UNL     1      22.353   0.227  53.835  1.00  0.00     0.211 C 
HETATM    2  C3  UNL     1      23.595  -0.586  53.744  1.00  0.00     0.061 C 
HETATM    3  C4  UNL     1      24.895   0.180  53.710  1.00  0.00     0.036 C 
HETATM    4  C5  UNL     1      25.700  -0.319  54.892  1.00  0.00     0.121 C 
HETATM    5  N1  UNL     1      27.046   0.003  54.771  1.00  0.00    -0.421 N 
HETATM    6  C6  UNL     1      27.748  -0.486  53.638  1.00  0.00     0.116 C 
HETATM    7  C7  UNL     1      26.933  -0.607  52.393  1.00  0.00     0.052 C 
HETATM    8  C8  UNL     1      25.599   0.035  52.413  1.00  0.00     0.135 C 
HETATM    9  O2  UNL     1      25.607   1.291  51.803  1.00  0.00    -0.357 OA
HETATM   10  C9  UNL     1      26.693   1.947  51.346  1.00  0.00     0.139 C 
HETATM   11  C10 UNL     1      25.816   2.848  50.852  1.00  0.00     0.074 C 
HETATM   12  C11 UNL     1      24.336   2.981  50.854  1.00  0.00     0.131 C 
HETATM   13  N3  UNL     1      23.828   2.033  51.462  1.00  0.00    -0.225 NA
HETATM   14  C18 UNL     1      22.585   1.600  51.797  1.00  0.00     0.399 C 
HETATM   15  N4  UNL     1      21.995   0.939  52.652  1.00  0.00    -0.380 NA
HETATM   16  H10 UNL     1      27.588   0.302  55.565  1.00  0.00     0.153 HD
ENDROOT
BRANCH  12  17
HETATM   17  N2  UNL     1      23.629   4.073  50.226  1.00  0.00    -0.341 N 
HETATM   18  H18 UNL     1      23.616   4.954  50.821  1.00  0.00     0.167 HD
BRANCH  17  19
HETATM   19  C12 UNL     1      23.081   3.779  48.932  1.00  0.00     0.035 A 
HETATM   20  C13 UNL     1      22.812   2.556  48.361  1.00  0.00     0.032 A 
HETATM   21  C14 UNL     1      22.287   2.488  47.090  1.00  0.00     0.046 A 
HETATM   22  C15 UNL     1      22.042   3.674  46.420  1.00  0.00     0.138 A 
HETATM   23  F1  UNL     1      21.518   3.623  45.151  1.00  0.00    -0.204 F 
HETATM   24  C16 UNL     1      22.292   4.922  46.948  1.00  0.00     0.074 A 
HETATM   25 CL1  UNL     1      21.960   6.388  46.048  1.00  0.00    -0.081 Cl
HETATM   26  C17 UNL     1      22.821   4.960  48.227  1.00  0.00     0.056 A 
ENDBRANCH  17  19
ENDBRANCH  12  17
BRANCH   1  27
HETATM   27  O1  UNL     1      21.258  -0.698  53.991  1.00  0.00    -0.372 OA
HETATM   28  C1  UNL     1      21.766  -1.865  54.582  1.00  0.00     0.204 C 
ENDBRANCH   1  27
TORSDOF 3
ENDMDL
MODEL 6
REMARK VINA RESULT:      -7.9      2.648      3.899
REMARK  3 active torsions:
REMARK  status: ('A' for Active; 'I' for Inactive)
REMARK    1  A    between atoms: O1_2  and  C2_3 
REMARK    2  A    between atoms: C11_14  and  N2_15 
REMARK    3  A    between atoms: N2_15  and  C12_16 
ROOT
HETATM    1  C2  UNL     1      19.550   1.920  50.833  1.00  0.00     0.211 C 
HETATM    2  C3  UNL     1      20.060   0.651  51.418  1.00  0.00     0.061 C 
HETATM    3  C4  UNL     1      20.887   0.780  52.675  1.00  0.00     0.036 C 
HETATM    4  C5  UNL     1      20.172  -0.045  53.726  1.00  0.00     0.121 C 
HETATM    5  N1  UNL     1      21.000  -0.336  54.803  1.00  0.00    -0.421 N 
HETATM    6  C6  UNL     1      22.198  -1.054  54.548  1.00  0.00     0.116 C 
HETATM    7  C7  UNL     1      22.829  -0.783  53.222  1.00  0.00     0.052 C 
HETATM    8  C8  UNL     1      22.297   0.374  52.464  1.00  0.00     0.135 C 
HETATM    9  O2  UNL     1      23.085   1.516  52.620  1.00  0.00    -0.357 OA
HETATM   10  C9  UNL     1      24.141   1.647  53.448  1.00  0.00     0.139 C 
HETATM   11  C10 UNL     1      24.324   2.850  52.861  1.00  0.00     0.074 C 
HETATM   12  C11 UNL     1      23.628   3.610  51.790  1.00  0.00     0.131 C 
HETATM   13  N3  UNL     1      22.664   2.962  51.371  1.00  0.00    -0.225 NA
HETATM   14  C18 UNL     1      21.681   3.103  50.443  1.00  0.00     0.399 C 
HETATM   15  N4  UNL     1      20.529   2.743  50.201  1.00  0.00    -0.380 NA
HETATM   16  H10 UNL     1      20.657  -0.319  55.750  1.00  0.00     0.153 HD
ENDROOT
BRANCH  12  17
HETATM   17  N2  UNL     1      24.047   4.915  51.333  1.00  0.00    -0.341 N 
HETATM   18  H18 UNL     1      23.458   5.704  51.735  1.00  0.00     0.167 HD
BRANCH  17  19
HETATM   19  C12 UNL     1      25.167   4.914  50.435  1.00  0.00     0.035 A 
HETATM   20  C13 UNL     1      25.936   3.855  50.009  1.00  0.00     0.032 A 
HETATM   21  C14 UNL     1      26.982   4.068  49.139  1.00  0.00     0.046 A 
HETATM   22  C15 UNL     1      27.226   5.362  48.714  1.00  0.00     0.138 A 
HETATM   23  F1  UNL     1      28.267   5.592  47.846  1.00  0.00    -0.204 F 
HETATM   24  C16 UNL     1      26.485   6.454  49.110  1.00  0.00     0.074 A 
HETATM   25 CL1  UNL     1      26.844   8.070  48.536  1.00  0.00    -0.081 Cl
HETATM   26  C17 UNL     1      25.440   6.211  49.985  1.00  0.00     0.056 A 
ENDBRANCH  17  19
ENDBRANCH  12  17
BRANCH   1  27
HETATM   27  O1  UNL     1      18.687   1.556  49.736  1.00  0.00    -0.372 OA
HETATM   28  C1  UNL     1      17.468   1.125  50.279  1.00  0.00     0.204 C 
ENDBRANCH   1  27
TORSDOF 3
ENDMDL
MODEL 7
REMARK VINA RESULT:      -7.9      2.458      4.686
REMARK  3 active torsions:
REMARK  status: ('A' for Active; 'I' for Inactive)
REMARK    1  A    between atoms: O1_2  and  C2_3 
REMARK    2  A    between atoms: C11_14  and  N2_15 
REMARK    3  A    between atoms: N2_15  and  C12_16 
ROOT
HETATM    1  C2  UNL     1      24.179   1.089  52.660  1.00  0.00     0.211 C 
HETATM    2  C3  UNL     1      22.715   0.830  52.637  1.00  0.00     0.061 C 
HETATM    3  C4  UNL     1      21.924   1.560  51.579  1.00  0.00     0.036 C 
HETATM    4  C5  UNL     1      21.241   0.485  50.758  1.00  0.00     0.121 C 
HETATM    5  N1  UNL     1      20.191   0.999  50.007  1.00  0.00    -0.421 N 
HETATM    6  C6  UNL     1      19.129   1.641  50.698  1.00  0.00     0.116 C 
HETATM    7  C7  UNL     1      19.528   2.359  51.944  1.00  0.00     0.052 C 
HETATM    8  C8  UNL     1      20.981   2.546  52.161  1.00  0.00     0.135 C 
HETATM    9  O2  UNL     1      21.416   3.814  51.772  1.00  0.00    -0.357 OA
HETATM   10  C9  UNL     1      20.675   4.753  51.150  1.00  0.00     0.139 C 
HETATM   11  C10 UNL     1      21.742   5.564  51.320  1.00  0.00     0.074 C 
HETATM   12  C11 UNL     1      23.089   5.411  51.930  1.00  0.00     0.131 C 
HETATM   13  N3  UNL     1      23.227   4.263  52.365  1.00  0.00    -0.225 NA
HETATM   14  C18 UNL     1      24.180   3.533  53.001  1.00  0.00     0.399 C 
HETATM   15  N4  UNL     1      24.569   2.374  53.140  1.00  0.00    -0.380 NA
HETATM   16  H10 UNL     1      20.017   0.688  49.065  1.00  0.00     0.153 HD
ENDROOT
BRANCH  12  17
HETATM   17  N2  UNL     1      24.067   6.472  51.987  1.00  0.00    -0.341 N 
HETATM   18  H18 UNL     1      24.263   6.802  52.979  1.00  0.00     0.167 HD
BRANCH  17  19
HETATM   19  C12 UNL     1      24.593   6.884  50.716  1.00  0.00     0.035 A 
HETATM   20  C13 UNL     1      24.262   7.983  49.955  1.00  0.00     0.032 A 
HETATM   21  C14 UNL     1      24.886   8.198  48.747  1.00  0.00     0.046 A 
HETATM   22  C15 UNL     1      25.841   7.286  48.333  1.00  0.00     0.138 A 
HETATM   23  F1  UNL     1      26.473   7.486  47.128  1.00  0.00    -0.204 F 
HETATM   24  C16 UNL     1      26.207   6.173  49.057  1.00  0.00     0.074 A 
HETATM   25 CL1  UNL     1      27.425   5.054  48.478  1.00  0.00    -0.081 Cl
HETATM   26  C17 UNL     1      25.564   5.981  50.268  1.00  0.00     0.056 A 
ENDBRANCH  17  19
ENDBRANCH  12  17
BRANCH   1  27
HETATM   27  O1  UNL     1      24.746   0.198  53.643  1.00  0.00    -0.372 OA
HETATM   28  C1  UNL     1      25.798  -0.498  53.030  1.00  0.00     0.204 C 
ENDBRANCH   1  27
TORSDOF 3
ENDMDL
MODEL 8
REMARK VINA RESULT:      -7.8      3.984      6.872
REMARK  3 active torsions:
REMARK  status: ('A' for Active; 'I' for Inactive)
REMARK    1  A    between atoms: O1_2  and  C2_3 
REMARK    2  A    between atoms: C11_14  and  N2_15 
REMARK    3  A    between atoms: N2_15  and  C12_16 
ROOT
HETATM    1  C2  UNL     1      22.396   4.076  48.867  1.00  0.00     0.211 C 
HETATM    2  C3  UNL     1      21.459   2.969  49.195  1.00  0.00     0.061 C 
HETATM    3  C4  UNL     1      21.289   2.649  50.660  1.00  0.00     0.036 C 
HETATM    4  C5  UNL     1      19.812   2.814  50.951  1.00  0.00     0.121 C 
HETATM    5  N1  UNL     1      19.448   2.190  52.138  1.00  0.00    -0.421 N 
HETATM    6  C6  UNL     1      19.674   0.793  52.253  1.00  0.00     0.116 C 
HETATM    7  C7  UNL     1      20.873   0.284  51.523  1.00  0.00     0.052 C 
HETATM    8  C8  UNL     1      21.813   1.305  51.006  1.00  0.00     0.135 C 
HETATM    9  O2  UNL     1      22.908   1.492  51.852  1.00  0.00    -0.357 OA
HETATM   10  C9  UNL     1      23.080   0.934  53.067  1.00  0.00     0.139 C 
HETATM   11  C10 UNL     1      24.313   1.485  53.035  1.00  0.00     0.074 C 
HETATM   12  C11 UNL     1      25.063   2.319  52.060  1.00  0.00     0.131 C 
HETATM   13  N3  UNL     1      24.363   2.540  51.067  1.00  0.00    -0.225 NA
HETATM   14  C18 UNL     1      24.467   3.206  49.887  1.00  0.00     0.399 C 
HETATM   15  N4  UNL     1      23.780   3.784  49.045  1.00  0.00    -0.380 NA
HETATM   16  H10 UNL     1      18.790   2.612  52.774  1.00  0.00     0.153 HD
ENDROOT
BRANCH  12  17
HETATM   17  N2  UNL     1      26.414   2.783  52.276  1.00  0.00    -0.341 N 
HETATM   18  H18 UNL     1      26.544   3.809  52.029  1.00  0.00     0.167 HD
BRANCH  17  19
HETATM   19  C12 UNL     1      27.324   1.793  52.780  1.00  0.00     0.035 A 
HETATM   20  C13 UNL     1      28.488   1.967  53.493  1.00  0.00     0.032 A 
HETATM   21  C14 UNL     1      29.230   0.874  53.882  1.00  0.00     0.046 A 
HETATM   22  C15 UNL     1      28.769  -0.384  53.536  1.00  0.00     0.138 A 
HETATM   23  F1  UNL     1      29.497  -1.486  53.917  1.00  0.00    -0.204 F 
HETATM   24  C16 UNL     1      27.610  -0.611  52.826  1.00  0.00     0.074 A 
HETATM   25 CL1  UNL     1      27.079  -2.230  52.419  1.00  0.00    -0.081 Cl
HETATM   26  C17 UNL     1      26.885   0.506  52.447  1.00  0.00     0.056 A 
ENDBRANCH  17  19
ENDBRANCH  12  17
BRANCH   1  27
HETATM   27  O1  UNL     1      22.300   4.297  47.444  1.00  0.00    -0.372 OA
HETATM   28  C1  UNL     1      22.042   3.059  46.837  1.00  0.00     0.204 C 
ENDBRANCH   1  27
TORSDOF 3
ENDMDL
MODEL 9
REMARK VINA RESULT:      -7.8      1.685      3.761
REMARK  3 active torsions:
REMARK  status: ('A' for Active; 'I' for Inactive)
REMARK    1  A    between atoms: O1_2  and  C2_3 
REMARK    2  A    between atoms: C11_14  and  N2_15 
REMARK    3  A    between atoms: N2_15  and  C12_16 
ROOT
HETATM    1  C2  UNL     1      25.490  -0.577  53.130  1.00  0.00     0.211 C 
HETATM    2  C3  UNL     1      24.281  -0.503  53.993  1.00  0.00     0.061 C 
HETATM    3  C4  UNL     1      22.951  -0.462  53.280  1.00  0.00     0.036 C 
HETATM    4  C5  UNL     1      22.171  -1.655  53.791  1.00  0.00     0.121 C 
HETATM    5  N1  UNL     1      20.812  -1.534  53.524  1.00  0.00    -0.421 N 
HETATM    6  C6  UNL     1      20.126  -0.411  54.059  1.00  0.00     0.116 C 
HETATM    7  C7  UNL     1      20.941   0.835  54.168  1.00  0.00     0.052 C 
HETATM    8  C8  UNL     1      22.249   0.830  53.473  1.00  0.00     0.135 C 
HETATM    9  O2  UNL     1      22.189   1.460  52.228  1.00  0.00    -0.357 OA
HETATM   10  C9  UNL     1      21.078   1.923  51.623  1.00  0.00     0.139 C 
HETATM   11  C10 UNL     1      21.916   2.435  50.696  1.00  0.00     0.074 C 
HETATM   12  C11 UNL     1      23.390   2.440  50.505  1.00  0.00     0.131 C 
HETATM   13  N3  UNL     1      23.937   1.819  51.422  1.00  0.00    -0.225 NA
HETATM   14  C18 UNL     1      25.197   1.482  51.800  1.00  0.00     0.399 C 
HETATM   15  N4  UNL     1      25.815   0.619  52.423  1.00  0.00    -0.380 NA
HETATM   16  H10 UNL     1      20.261  -2.325  53.234  1.00  0.00     0.153 HD
ENDROOT
BRANCH  12  17
HETATM   17  N2  UNL     1      24.051   3.088  49.395  1.00  0.00    -0.341 N 
HETATM   18  H18 UNL     1      24.075   2.486  48.519  1.00  0.00     0.167 HD
BRANCH  17  19
HETATM   19  C12 UNL     1      24.548   4.406  49.670  1.00  0.00     0.035 A 
HETATM   20  C13 UNL     1      23.976   5.412  50.416  1.00  0.00     0.032 A 
HETATM   21  C14 UNL     1      24.620   6.621  50.554  1.00  0.00     0.046 A 
HETATM   22  C15 UNL     1      25.842   6.786  49.926  1.00  0.00     0.138 A 
HETATM   23  F1  UNL     1      26.498   7.987  50.054  1.00  0.00    -0.204 F 
HETATM   24  C16 UNL     1      26.457   5.812  49.170  1.00  0.00     0.074 A 
HETATM   25 CL1  UNL     1      28.007   6.081  48.400  1.00  0.00    -0.081 Cl
HETATM   26  C17 UNL     1      25.787   4.606  49.049  1.00  0.00     0.056 A 
ENDBRANCH  17  19
ENDBRANCH  12  17
BRANCH   1  27
HETATM   27  O1  UNL     1      26.621  -0.743  54.009  1.00  0.00    -0.372 OA
HETATM   28  C1  UNL     1      26.420   0.084  55.124  1.00  0.00     0.204 C 
ENDBRANCH   1  27
TORSDOF 3
ENDMDL
