MODEL 1
REMARK VINA RESULT:      -9.1      0.000      0.000
REMARK  6 active torsions:
REMARK  status: ('A' for Active; 'I' for Inactive)
REMARK    1  A    between atoms: C2_2  and  C3_3 
REMARK       I    between atoms: C3_3  and  N1_5 
REMARK    2  A    between atoms: N1_5  and  C4_6 
REMARK    3  A    between atoms: C8_10  and  N2_11 
REMARK    4  A    between atoms: C9_12  and  C10_13 
REMARK    5  A    between atoms: C12_16  and  C13_17 
REMARK    6  A    between atoms: C17_24  and  N7_25 
ROOT
HETATM    1  N2  UNL     1      25.524   1.318  53.281  1.00  0.00    -0.292 N 
HETATM    2  C9  UNL     1      25.042   0.131  53.665  1.00  0.00     0.168 A 
HETATM    3  N8  UNL     1      26.038  -0.597  54.241  1.00  0.00    -0.226 NA
HETATM    4  C18 UNL     1      27.170   0.144  54.220  1.00  0.00     0.086 A 
HETATM    5  C19 UNL     1      28.467  -0.051  54.645  1.00  0.00     0.034 A 
HETATM    6  C20 UNL     1      29.400   0.948  54.461  1.00  0.00     0.002 A 
HETATM    7  C21 UNL     1      29.088   2.161  53.856  1.00  0.00     0.002 A 
HETATM    8  C22 UNL     1      27.779   2.344  53.433  1.00  0.00     0.032 A 
HETATM    9  C23 UNL     1      26.840   1.341  53.617  1.00  0.00     0.070 A 
ENDROOT
BRANCH   2  10
HETATM   10  C10 UNL     1      23.688  -0.410  53.541  1.00  0.00     0.143 C 
HETATM   11  N3  UNL     1      22.991  -0.458  52.455  1.00  0.00    -0.278 NA
HETATM   12  C11 UNL     1      21.661  -0.946  52.145  1.00  0.00     0.190 C 
HETATM   13  C12 UNL     1      20.661  -0.619  53.196  1.00  0.00    -0.010 C 
HETATM   14  C16 UNL     1      20.750  -0.634  54.518  1.00  0.00     0.128 C 
HETATM   15  N6  UNL     1      21.945  -1.006  55.235  1.00  0.00    -0.241 NA
HETATM   16  C17 UNL     1      23.184  -0.909  54.818  1.00  0.00     0.153 C 
BRANCH  13  17
HETATM   17  C13 UNL     1      19.334  -0.202  52.755  1.00  0.00     0.003 C 
HETATM   18  C14 UNL     1      18.504  -1.053  53.333  1.00  0.00     0.116 C 
HETATM   19  N4  UNL     1      17.432  -1.257  52.644  1.00  0.00    -0.176 NA
HETATM   20  N5  UNL     1      17.306  -0.173  51.740  1.00  0.00    -0.309 N 
HETATM   21  C15 UNL     1      18.453   0.692  51.989  1.00  0.00     0.183 C 
HETATM   22  H10 UNL     1      16.543  -0.021  51.033  1.00  0.00     0.182 HD
ENDBRANCH  13  17
BRANCH  16  23
HETATM   23  N7  UNL     1      24.123  -1.375  55.797  1.00  0.00    -0.382 N 
HETATM   24  H14 UNL     1      24.583  -2.289  55.561  1.00  0.00     0.157 HD
HETATM   25  H15 UNL     1      24.252  -0.778  56.620  1.00  0.00     0.157 HD
ENDBRANCH  16  23
ENDBRANCH   2  10
BRANCH   1  26
HETATM   26  C8  UNL     1      24.794   2.341  52.647  1.00  0.00     0.043 A 
HETATM   27  C7  UNL     1      24.327   3.347  53.496  1.00  0.00     0.030 A 
HETATM   28  C6  UNL     1      23.602   4.390  52.965  1.00  0.00     0.004 A 
HETATM   29  C5  UNL     1      23.322   4.471  51.621  1.00  0.00     0.029 A 
HETATM   30  C4  UNL     1      23.790   3.468  50.790  1.00  0.00     0.037 A 
HETATM   31  C24 UNL     1      24.519   2.414  51.305  1.00  0.00     0.059 A 
BRANCH  30  32
HETATM   32  N1  UNL     1      23.602   3.377  49.372  1.00  0.00    -0.324 N 
HETATM   33  C3  UNL     1      22.476   2.669  48.865  1.00  0.00     0.241 C 
HETATM   34  O1  UNL     1      21.623   2.109  49.606  1.00  0.00    -0.269 OA
HETATM   35  H4  UNL     1      24.303   3.837  48.750  1.00  0.00     0.169 HD
BRANCH  33  36
HETATM   36  C2  UNL     1      22.368   2.629  47.407  1.00  0.00     0.048 C 
HETATM   37  C1  UNL     1      21.974   3.291  46.315  1.00  0.00     0.037 C 
ENDBRANCH  33  36
ENDBRANCH  30  32
ENDBRANCH   1  26
TORSDOF 6
ENDMDL
MODEL 2
REMARK VINA RESULT:      -9.1      3.588      7.437
REMARK  6 active torsions:
REMARK  status: ('A' for Active; 'I' for Inactive)
REMARK    1  A    between atoms: C2_2  and  C3_3 
REMARK       I    between atoms: C3_3  and  N1_5 
REMARK    2  A    between atoms: N1_5  and  C4_6 
REMARK    3  A    between atoms: C8_10  and  N2_11 
REMARK    4  A    between atoms: C9_12  and  C10_13 
REMARK    5  A    between atoms: C12_16  and  C13_17 
REMARK    6  A    between atoms: C17_24  and  N7_25 
ROOT
HETATM    1  N2  UNL     1      23.600   4.598  48.934  1.00  0.00    -0.292 N 
HETATM    2  C9  UNL     1      23.477   3.416  49.548  1.00  0.00     0.168 A 
HETATM    3  N8  UNL     1      22.535   2.669  48.908  1.00  0.00    -0.226 NA
HETATM    4  C18 UNL     1      22.053   3.394  47.872  1.00  0.00     0.086 A 
HETATM    5  C19 UNL     1      21.109   3.177  46.891  1.00  0.00     0.034 A 
HETATM    6  C20 UNL     1      20.858   4.163  45.960  1.00  0.00     0.002 A 
HETATM    7  C21 UNL     1      21.522   5.385  45.966  1.00  0.00     0.002 A 
HETATM    8  C22 UNL     1      22.471   5.590  46.959  1.00  0.00     0.032 A 
HETATM    9  C23 UNL     1      22.724   4.599  47.896  1.00  0.00     0.070 A 
ENDROOT
BRANCH   2  10
HETATM   10  C10 UNL     1      24.183   2.895  50.718  1.00  0.00     0.143 C 
HETATM   11  N3  UNL     1      25.437   2.586  50.768  1.00  0.00    -0.278 NA
HETATM   12  C11 UNL     1      26.296   2.068  51.816  1.00  0.00     0.190 C 
HETATM   13  C12 UNL     1      25.637   1.020  52.641  1.00  0.00    -0.010 C 
HETATM   14  C16 UNL     1      24.402   0.929  53.110  1.00  0.00     0.128 C 
HETATM   15  N6  UNL     1      23.384   1.925  52.882  1.00  0.00    -0.241 NA
HETATM   16  C17 UNL     1      23.296   2.753  51.870  1.00  0.00     0.153 C 
BRANCH  13  17
HETATM   17  C13 UNL     1      26.443  -0.133  53.030  1.00  0.00     0.003 C 
HETATM   18  C14 UNL     1      26.864   0.147  54.252  1.00  0.00     0.116 C 
HETATM   19  N4  UNL     1      28.008  -0.385  54.524  1.00  0.00    -0.176 NA
HETATM   20  N5  UNL     1      28.205  -1.442  53.602  1.00  0.00    -0.309 N 
HETATM   21  C15 UNL     1      27.024  -1.454  52.747  1.00  0.00     0.183 C 
HETATM   22  H10 UNL     1      29.033  -2.087  53.544  1.00  0.00     0.182 HD
ENDBRANCH  13  17
BRANCH  16  23
HETATM   23  N7  UNL     1      22.150   3.609  51.968  1.00  0.00    -0.382 N 
HETATM   24  H14 UNL     1      21.708   3.855  51.048  1.00  0.00     0.157 HD
HETATM   25  H15 UNL     1      21.878   3.894  52.915  1.00  0.00     0.157 HD
ENDBRANCH  16  23
ENDBRANCH   2  10
BRANCH   1  26
HETATM   26  C8  UNL     1      24.474   5.636  49.307  1.00  0.00     0.043 A 
HETATM   27  C7  UNL     1      23.904   6.633  50.101  1.00  0.00     0.030 A 
HETATM   28  C6  UNL     1      24.684   7.689  50.514  1.00  0.00     0.004 A 
HETATM   29  C5  UNL     1      26.010   7.794  50.166  1.00  0.00     0.029 A 
HETATM   30  C4  UNL     1      26.563   6.800  49.378  1.00  0.00     0.037 A 
HETATM   31  C24 UNL     1      25.797   5.732  48.955  1.00  0.00     0.059 A 
BRANCH  30  32
HETATM   32  N1  UNL     1      27.918   6.733  48.915  1.00  0.00    -0.324 N 
HETATM   33  C3  UNL     1      28.257   7.336  47.671  1.00  0.00     0.241 C 
HETATM   34  O1  UNL     1      27.418   7.934  46.943  1.00  0.00    -0.269 OA
HETATM   35  H4  UNL     1      28.621   6.240  49.510  1.00  0.00     0.169 HD
BRANCH  33  36
HETATM   36  C2  UNL     1      29.662   7.217  47.281  1.00  0.00     0.048 C 
HETATM   37  C1  UNL     1      30.759   6.456  47.339  1.00  0.00     0.037 C 
ENDBRANCH  33  36
ENDBRANCH  30  32
ENDBRANCH   1  26
TORSDOF 6
ENDMDL
MODEL 3
REMARK VINA RESULT:      -8.8      2.038      6.850
REMARK  6 active torsions:
REMARK  status: ('A' for Active; 'I' for Inactive)
REMARK    1  A    between atoms: C2_2  and  C3_3 
REMARK       I    between atoms: C3_3  and  N1_5 
REMARK    2  A    between atoms: N1_5  and  C4_6 
REMARK    3  A    between atoms: C8_10  and  N2_11 
REMARK    4  A    between atoms: C9_12  and  C10_13 
REMARK    5  A    between atoms: C12_16  and  C13_17 
REMARK    6  A    between atoms: C17_24  and  N7_25 
ROOT
HETATM    1  N2  UNL     1      20.315   0.845  51.128  1.00  0.00    -0.292 N 
HETATM    2  C9  UNL     1      20.795   0.297  52.250  1.00  0.00     0.168 A 
HETATM    3  N8  UNL     1      19.818  -0.440  52.847  1.00  0.00    -0.226 NA
HETATM    4  C18 UNL     1      18.701  -0.356  52.090  1.00  0.00     0.086 A 
HETATM    5  C19 UNL     1      17.426  -0.872  52.179  1.00  0.00     0.034 A 
HETATM    6  C20 UNL     1      16.503  -0.575  51.198  1.00  0.00     0.002 A 
HETATM    7  C21 UNL     1      16.803   0.234  50.107  1.00  0.00     0.002 A 
HETATM    8  C22 UNL     1      18.091   0.748  50.030  1.00  0.00     0.032 A 
HETATM    9  C23 UNL     1      19.020   0.450  51.016  1.00  0.00     0.070 A 
ENDROOT
BRANCH   2  10
HETATM   10  C10 UNL     1      22.130   0.399  52.840  1.00  0.00     0.143 C 
HETATM   11  N3  UNL     1      23.173   0.899  52.265  1.00  0.00    -0.278 NA
HETATM   12  C11 UNL     1      24.550   1.082  52.681  1.00  0.00     0.190 C 
HETATM   13  C12 UNL     1      25.085  -0.077  53.445  1.00  0.00    -0.010 C 
HETATM   14  C16 UNL     1      24.528  -0.842  54.371  1.00  0.00     0.128 C 
HETATM   15  N6  UNL     1      23.177  -0.667  54.847  1.00  0.00    -0.241 NA
HETATM   16  C17 UNL     1      22.169  -0.142  54.196  1.00  0.00     0.153 C 
BRANCH  13  17
HETATM   17  C13 UNL     1      26.457  -0.490  53.166  1.00  0.00     0.003 C 
HETATM   18  C14 UNL     1      26.351  -1.722  52.700  1.00  0.00     0.116 C 
HETATM   19  N4  UNL     1      27.381  -2.451  52.965  1.00  0.00    -0.176 NA
HETATM   20  N5  UNL     1      28.450  -1.569  53.263  1.00  0.00    -0.309 N 
HETATM   21  C15 UNL     1      27.903  -0.223  53.143  1.00  0.00     0.183 C 
HETATM   22  H10 UNL     1      29.435  -1.830  53.520  1.00  0.00     0.182 HD
ENDBRANCH  13  17
BRANCH  16  23
HETATM   23  N7  UNL     1      20.967  -0.127  54.979  1.00  0.00    -0.382 N 
HETATM   24  H14 UNL     1      20.795   0.769  55.498  1.00  0.00     0.157 HD
HETATM   25  H15 UNL     1      20.401  -0.982  54.956  1.00  0.00     0.157 HD
ENDBRANCH  16  23
ENDBRANCH   2  10
BRANCH   1  26
HETATM   26  C8  UNL     1      21.028   1.672  50.241  1.00  0.00     0.043 A 
HETATM   27  C7  UNL     1      21.472   1.046  49.075  1.00  0.00     0.030 A 
HETATM   28  C6  UNL     1      22.180   1.777  48.148  1.00  0.00     0.004 A 
HETATM   29  C5  UNL     1      22.463   3.110  48.336  1.00  0.00     0.029 A 
HETATM   30  C4  UNL     1      22.018   3.719  49.495  1.00  0.00     0.037 A 
HETATM   31  C24 UNL     1      21.307   3.002  50.437  1.00  0.00     0.059 A 
BRANCH  30  32
HETATM   32  N1  UNL     1      22.214   5.089  49.869  1.00  0.00    -0.324 N 
HETATM   33  C3  UNL     1      23.406   5.460  50.551  1.00  0.00     0.241 C 
HETATM   34  O1  UNL     1      24.314   4.636  50.850  1.00  0.00    -0.269 OA
HETATM   35  H4  UNL     1      21.468   5.780  49.626  1.00  0.00     0.169 HD
BRANCH  33  36
HETATM   36  C2  UNL     1      23.518   6.878  50.892  1.00  0.00     0.048 C 
HETATM   37  C1  UNL     1      24.084   8.045  50.571  1.00  0.00     0.037 C 
ENDBRANCH  33  36
ENDBRANCH  30  32
ENDBRANCH   1  26
TORSDOF 6
ENDMDL
MODEL 4
REMARK VINA RESULT:      -8.7      2.432      2.763
REMARK  6 active torsions:
REMARK  status: ('A' for Active; 'I' for Inactive)
REMARK    1  A    between atoms: C2_2  and  C3_3 
REMARK       I    between atoms: C3_3  and  N1_5 
REMARK    2  A    between atoms: N1_5  and  C4_6 
REMARK    3  A    between atoms: C8_10  and  N2_11 
REMARK    4  A    between atoms: C9_12  and  C10_13 
REMARK    5  A    between atoms: C12_16  and  C13_17 
REMARK    6  A    between atoms: C17_24  and  N7_25 
ROOT
HETATM    1  N2  UNL     1      25.282   1.618  52.638  1.00  0.00    -0.292 N 
HETATM    2  C9  UNL     1      24.550   0.507  52.771  1.00  0.00     0.168 A 
HETATM    3  N8  UNL     1      25.349  -0.514  53.186  1.00  0.00    -0.226 NA
HETATM    4  C18 UNL     1      26.609  -0.039  53.318  1.00  0.00     0.086 A 
HETATM    5  C19 UNL     1      27.818  -0.584  53.695  1.00  0.00     0.034 A 
HETATM    6  C20 UNL     1      28.944   0.213  53.719  1.00  0.00     0.002 A 
HETATM    7  C21 UNL     1      28.915   1.560  53.375  1.00  0.00     0.002 A 
HETATM    8  C22 UNL     1      27.691   2.096  52.998  1.00  0.00     0.032 A 
HETATM    9  C23 UNL     1      26.559   1.296  52.972  1.00  0.00     0.070 A 
ENDROOT
BRANCH   2  10
HETATM   10  C10 UNL     1      23.121   0.298  52.539  1.00  0.00     0.143 C 
HETATM   11  N3  UNL     1      22.498   0.509  51.427  1.00  0.00    -0.278 NA
HETATM   12  C11 UNL     1      21.115   0.363  51.015  1.00  0.00     0.190 C 
HETATM   13  C12 UNL     1      20.149   0.810  52.054  1.00  0.00    -0.010 C 
HETATM   14  C16 UNL     1      20.151   0.654  53.369  1.00  0.00     0.128 C 
HETATM   15  N6  UNL     1      21.188  -0.043  54.091  1.00  0.00    -0.241 NA
HETATM   16  C17 UNL     1      22.441  -0.190  53.735  1.00  0.00     0.153 C 
BRANCH  13  17
HETATM   17  C13 UNL     1      18.977   1.554  51.606  1.00  0.00     0.003 C 
HETATM   18  C14 UNL     1      19.321   2.826  51.717  1.00  0.00     0.116 C 
HETATM   19  N4  UNL     1      18.319   3.600  51.964  1.00  0.00    -0.176 NA
HETATM   20  N5  UNL     1      17.148   2.896  51.587  1.00  0.00    -0.309 N 
HETATM   21  C15 UNL     1      17.600   1.602  51.091  1.00  0.00     0.183 C 
HETATM   22  H10 UNL     1      16.156   3.236  51.652  1.00  0.00     0.182 HD
ENDBRANCH  13  17
BRANCH  16  23
HETATM   23  N7  UNL     1      23.192  -0.943  54.697  1.00  0.00    -0.382 N 
HETATM   24  H14 UNL     1      24.223  -0.745  54.698  1.00  0.00     0.157 HD
HETATM   25  H15 UNL     1      22.655  -1.592  55.282  1.00  0.00     0.157 HD
ENDBRANCH  16  23
ENDBRANCH   2  10
BRANCH   1  26
HETATM   26  C8  UNL     1      24.806   2.877  52.227  1.00  0.00     0.043 A 
HETATM   27  C7  UNL     1      23.925   3.496  53.116  1.00  0.00     0.030 A 
HETATM   28  C6  UNL     1      23.408   4.731  52.797  1.00  0.00     0.004 A 
HETATM   29  C5  UNL     1      23.733   5.376  51.627  1.00  0.00     0.029 A 
HETATM   30  C4  UNL     1      24.607   4.753  50.754  1.00  0.00     0.037 A 
HETATM   31  C24 UNL     1      25.136   3.514  51.057  1.00  0.00     0.059 A 
BRANCH  30  32
HETATM   32  N1  UNL     1      25.063   5.262  49.494  1.00  0.00    -0.324 N 
HETATM   33  C3  UNL     1      25.708   6.529  49.449  1.00  0.00     0.241 C 
HETATM   34  O1  UNL     1      25.904   7.240  50.473  1.00  0.00    -0.269 OA
HETATM   35  H4  UNL     1      24.906   4.681  48.640  1.00  0.00     0.169 HD
BRANCH  33  36
HETATM   36  C2  UNL     1      26.138   6.966  48.121  1.00  0.00     0.048 C 
HETATM   37  C1  UNL     1      27.116   7.541  47.416  1.00  0.00     0.037 C 
ENDBRANCH  33  36
ENDBRANCH  30  32
ENDBRANCH   1  26
TORSDOF 6
ENDMDL
MODEL 5
REMARK VINA RESULT:      -8.6      2.307      7.704
REMARK  6 active torsions:
REMARK  status: ('A' for Active; 'I' for Inactive)
REMARK    1  A    between atoms: C2_2  and  C3_3 
REMARK       I    between atoms: C3_3  and  N1_5 
REMARK    2  A    between atoms: N1_5  and  C4_6 
REMARK    3  A    between atoms: C8_10  and  N2_11 
REMARK    4  A    between atoms: C9_12  and  C10_13 
REMARK    5  A    between atoms: C12_16  and  C13_17 
REMARK    6  A    between atoms: C17_24  and  N7_25 
ROOT
HETATM    1  N2  UNL     1      20.554   0.047  52.515  1.00  0.00    -0.292 N 
HETATM    2  C9  UNL     1      20.334   0.968  51.571  1.00  0.00     0.168 A 
HETATM    3  N8  UNL     1      19.041   0.887  51.153  1.00  0.00    -0.226 NA
HETATM    4  C18 UNL     1      18.433  -0.104  51.845  1.00  0.00     0.086 A 
HETATM    5  C19 UNL     1      17.163  -0.641  51.861  1.00  0.00     0.034 A 
HETATM    6  C20 UNL     1      16.876  -1.680  52.721  1.00  0.00     0.002 A 
HETATM    7  C21 UNL     1      17.822  -2.219  53.586  1.00  0.00     0.002 A 
HETATM    8  C22 UNL     1      19.097  -1.669  53.560  1.00  0.00     0.032 A 
HETATM    9  C23 UNL     1      19.387  -0.625  52.695  1.00  0.00     0.070 A 
ENDROOT
BRANCH   2  10
HETATM   10  C10 UNL     1      21.250   1.955  51.000  1.00  0.00     0.143 C 
HETATM   11  N3  UNL     1      22.087   1.742  50.039  1.00  0.00    -0.278 NA
HETATM   12  C11 UNL     1      23.054   2.577  49.354  1.00  0.00     0.190 C 
HETATM   13  C12 UNL     1      23.792   3.485  50.274  1.00  0.00    -0.010 C 
HETATM   14  C16 UNL     1      23.381   4.190  51.316  1.00  0.00     0.128 C 
HETATM   15  N6  UNL     1      22.017   4.204  51.786  1.00  0.00    -0.241 NA
HETATM   16  C17 UNL     1      21.122   3.257  51.650  1.00  0.00     0.153 C 
BRANCH  13  17
HETATM   17  C13 UNL     1      25.220   3.667  50.035  1.00  0.00     0.003 C 
HETATM   18  C14 UNL     1      25.384   4.977  49.954  1.00  0.00     0.116 C 
HETATM   19  N4  UNL     1      26.360   5.315  49.181  1.00  0.00    -0.176 NA
HETATM   20  N5  UNL     1      27.196   4.179  49.045  1.00  0.00    -0.309 N 
HETATM   21  C15 UNL     1      26.573   3.126  49.838  1.00  0.00     0.183 C 
HETATM   22  H10 UNL     1      28.083   4.107  48.486  1.00  0.00     0.182 HD
ENDBRANCH  13  17
BRANCH  16  23
HETATM   23  N7  UNL     1      19.864   3.611  52.241  1.00  0.00    -0.382 N 
HETATM   24  H14 UNL     1      19.307   2.798  52.605  1.00  0.00     0.157 HD
HETATM   25  H15 UNL     1      19.635   4.611  52.252  1.00  0.00     0.157 HD
ENDBRANCH  16  23
ENDBRANCH   2  10
BRANCH   1  26
HETATM   26  C8  UNL     1      21.771  -0.175  53.186  1.00  0.00     0.043 A 
HETATM   27  C7  UNL     1      21.679  -0.964  54.334  1.00  0.00     0.030 A 
HETATM   28  C6  UNL     1      22.819  -1.235  55.057  1.00  0.00     0.004 A 
HETATM   29  C5  UNL     1      24.049  -0.749  54.682  1.00  0.00     0.029 A 
HETATM   30  C4  UNL     1      24.129   0.032  53.543  1.00  0.00     0.037 A 
HETATM   31  C24 UNL     1      22.996   0.314  52.805  1.00  0.00     0.059 A 
BRANCH  30  32
HETATM   32  N1  UNL     1      25.313   0.625  52.995  1.00  0.00    -0.324 N 
HETATM   33  C3  UNL     1      26.351   1.042  53.874  1.00  0.00     0.241 C 
HETATM   34  O1  UNL     1      26.285   0.917  55.128  1.00  0.00    -0.269 OA
HETATM   35  H4  UNL     1      25.378   0.734  51.958  1.00  0.00     0.169 HD
BRANCH  33  36
HETATM   36  C2  UNL     1      27.520   1.636  53.225  1.00  0.00     0.048 C 
HETATM   37  C1  UNL     1      28.571   2.446  53.381  1.00  0.00     0.037 C 
ENDBRANCH  33  36
ENDBRANCH  30  32
ENDBRANCH   1  26
TORSDOF 6
ENDMDL
MODEL 6
REMARK VINA RESULT:      -8.5      3.366      7.622
REMARK  6 active torsions:
REMARK  status: ('A' for Active; 'I' for Inactive)
REMARK    1  A    between atoms: C2_2  and  C3_3 
REMARK       I    between atoms: C3_3  and  N1_5 
REMARK    2  A    between atoms: N1_5  and  C4_6 
REMARK    3  A    between atoms: C8_10  and  N2_11 
REMARK    4  A    between atoms: C9_12  and  C10_13 
REMARK    5  A    between atoms: C12_16  and  C13_17 
REMARK    6  A    between atoms: C17_24  and  N7_25 
ROOT
HETATM    1  N2  UNL     1      21.451   1.750  51.909  1.00  0.00    -0.292 N 
HETATM    2  C9  UNL     1      22.678   2.282  51.878  1.00  0.00     0.168 A 
HETATM    3  N8  UNL     1      23.491   1.594  52.727  1.00  0.00    -0.226 NA
HETATM    4  C18 UNL     1      22.765   0.610  53.304  1.00  0.00     0.086 A 
HETATM    5  C19 UNL     1      23.032  -0.382  54.224  1.00  0.00     0.034 A 
HETATM    6  C20 UNL     1      22.024  -1.244  54.604  1.00  0.00     0.002 A 
HETATM    7  C21 UNL     1      20.732  -1.157  54.096  1.00  0.00     0.002 A 
HETATM    8  C22 UNL     1      20.478  -0.153  53.171  1.00  0.00     0.032 A 
HETATM    9  C23 UNL     1      21.490   0.715  52.788  1.00  0.00     0.070 A 
ENDROOT
BRANCH   2  10
HETATM   10  C10 UNL     1      23.184   3.414  51.102  1.00  0.00     0.143 C 
HETATM   11  N3  UNL     1      23.662   3.354  49.903  1.00  0.00    -0.278 NA
HETATM   12  C11 UNL     1      24.199   4.347  48.992  1.00  0.00     0.190 C 
HETATM   13  C12 UNL     1      25.062   5.351  49.671  1.00  0.00    -0.010 C 
HETATM   14  C16 UNL     1      24.933   5.965  50.837  1.00  0.00     0.128 C 
HETATM   15  N6  UNL     1      23.827   5.747  51.737  1.00  0.00    -0.241 NA
HETATM   16  C17 UNL     1      23.092   4.668  51.845  1.00  0.00     0.153 C 
BRANCH  13  17
HETATM   17  C13 UNL     1      26.277   5.769  48.979  1.00  0.00     0.003 C 
HETATM   18  C14 UNL     1      26.995   4.665  48.861  1.00  0.00     0.116 C 
HETATM   19  N4  UNL     1      28.266   4.889  48.856  1.00  0.00    -0.176 NA
HETATM   20  N5  UNL     1      28.446   6.255  48.526  1.00  0.00    -0.309 N 
HETATM   21  C15 UNL     1      27.107   6.803  48.344  1.00  0.00     0.183 C 
HETATM   22  H10 UNL     1      29.357   6.770  48.431  1.00  0.00     0.182 HD
ENDBRANCH  13  17
BRANCH  16  23
HETATM   23  N7  UNL     1      22.075   4.803  52.848  1.00  0.00    -0.382 N 
HETATM   24  H14 UNL     1      22.005   3.992  53.511  1.00  0.00     0.157 HD
HETATM   25  H15 UNL     1      21.524   5.667  52.820  1.00  0.00     0.157 HD
ENDBRANCH  16  23
ENDBRANCH   2  10
BRANCH   1  26
HETATM   26  C8  UNL     1      20.340   2.190  51.167  1.00  0.00     0.043 A 
HETATM   27  C7  UNL     1      20.347   1.827  49.819  1.00  0.00     0.030 A 
HETATM   28  C6  UNL     1      19.300   2.214  49.014  1.00  0.00     0.004 A 
HETATM   29  C5  UNL     1      18.244   2.950  49.498  1.00  0.00     0.029 A 
HETATM   30  C4  UNL     1      18.248   3.304  50.835  1.00  0.00     0.037 A 
HETATM   31  C24 UNL     1      19.290   2.924  51.658  1.00  0.00     0.059 A 
BRANCH  30  32
HETATM   32  N1  UNL     1      17.244   4.064  51.520  1.00  0.00    -0.324 N 
HETATM   33  C3  UNL     1      16.099   3.396  52.036  1.00  0.00     0.241 C 
HETATM   34  O1  UNL     1      15.915   2.152  51.921  1.00  0.00    -0.269 OA
HETATM   35  H4  UNL     1      17.386   5.094  51.621  1.00  0.00     0.169 HD
BRANCH  33  36
HETATM   36  C2  UNL     1      15.129   4.252  52.719  1.00  0.00     0.048 C 
HETATM   37  C1  UNL     1      14.196   4.313  53.673  1.00  0.00     0.037 C 
ENDBRANCH  33  36
ENDBRANCH  30  32
ENDBRANCH   1  26
TORSDOF 6
ENDMDL
MODEL 7
REMARK VINA RESULT:      -8.4      3.157      5.686
REMARK  6 active torsions:
REMARK  status: ('A' for Active; 'I' for Inactive)
REMARK    1  A    between atoms: C2_2  and  C3_3 
REMARK       I    between atoms: C3_3  and  N1_5 
REMARK    2  A    between atoms: N1_5  and  C4_6 
REMARK    3  A    between atoms: C8_10  and  N2_11 
REMARK    4  A    between atoms: C9_12  and  C10_13 
REMARK    5  A    between atoms: C12_16  and  C13_17 
REMARK    6  A    between atoms: C17_24  and  N7_25 
ROOT
HETATM    1  N2  UNL     1      21.231   1.414  51.993  1.00  0.00    -0.292 N 
HETATM    2  C9  UNL     1      19.958   1.298  52.387  1.00  0.00     0.168 A 
HETATM    3  N8  UNL     1      19.891   0.464  53.461  1.00  0.00    -0.226 NA
HETATM    4  C18 UNL     1      21.144   0.046  53.751  1.00  0.00     0.086 A 
HETATM    5  C19 UNL     1      21.695  -0.786  54.703  1.00  0.00     0.034 A 
HETATM    6  C20 UNL     1      23.057  -1.000  54.711  1.00  0.00     0.002 A 
HETATM    7  C21 UNL     1      23.914  -0.407  53.791  1.00  0.00     0.002 A 
HETATM    8  C22 UNL     1      23.346   0.429  52.838  1.00  0.00     0.032 A 
HETATM    9  C23 UNL     1      21.977   0.644  52.828  1.00  0.00     0.070 A 
ENDROOT
BRANCH   2  10
HETATM   10  C10 UNL     1      18.751   1.915  51.836  1.00  0.00     0.143 C 
HETATM   11  N3  UNL     1      18.396   3.147  51.989  1.00  0.00    -0.278 NA
HETATM   12  C11 UNL     1      17.261   3.923  51.529  1.00  0.00     0.190 C 
HETATM   13  C12 UNL     1      15.979   3.172  51.595  1.00  0.00    -0.010 C 
HETATM   14  C16 UNL     1      15.692   1.911  51.310  1.00  0.00     0.128 C 
HETATM   15  N6  UNL     1      16.665   0.956  50.840  1.00  0.00    -0.241 NA
HETATM   16  C17 UNL     1      17.956   0.962  51.065  1.00  0.00     0.153 C 
BRANCH  13  17
HETATM   17  C13 UNL     1      14.797   3.899  52.048  1.00  0.00     0.003 C 
HETATM   18  C14 UNL     1      15.161   4.457  53.190  1.00  0.00     0.116 C 
HETATM   19  N4  UNL     1      14.179   4.606  54.013  1.00  0.00    -0.176 NA
HETATM   20  N5  UNL     1      12.985   4.539  53.253  1.00  0.00    -0.309 N 
HETATM   21  C15 UNL     1      13.401   4.325  51.872  1.00  0.00     0.183 C 
HETATM   22  H10 UNL     1      12.000   4.625  53.609  1.00  0.00     0.182 HD
ENDBRANCH  13  17
BRANCH  16  23
HETATM   23  N7  UNL     1      18.621  -0.144  50.440  1.00  0.00    -0.382 N 
HETATM   24  H14 UNL     1      19.572  -0.359  50.829  1.00  0.00     0.157 HD
HETATM   25  H15 UNL     1      18.108  -0.612  49.685  1.00  0.00     0.157 HD
ENDBRANCH  16  23
ENDBRANCH   2  10
BRANCH   1  26
HETATM   26  C8  UNL     1      21.695   2.190  50.915  1.00  0.00     0.043 A 
HETATM   27  C7  UNL     1      21.806   1.510  49.701  1.00  0.00     0.030 A 
HETATM   28  C6  UNL     1      22.253   2.188  48.590  1.00  0.00     0.004 A 
HETATM   29  C5  UNL     1      22.595   3.519  48.639  1.00  0.00     0.029 A 
HETATM   30  C4  UNL     1      22.481   4.183  49.848  1.00  0.00     0.037 A 
HETATM   31  C24 UNL     1      22.034   3.519  50.973  1.00  0.00     0.059 A 
BRANCH  30  32
HETATM   32  N1  UNL     1      22.787   5.560  50.098  1.00  0.00    -0.324 N 
HETATM   33  C3  UNL     1      24.126   5.929  50.409  1.00  0.00     0.241 C 
HETATM   34  O1  UNL     1      25.072   5.097  50.478  1.00  0.00    -0.269 OA
HETATM   35  H4  UNL     1      22.012   6.258  50.044  1.00  0.00     0.169 HD
BRANCH  33  36
HETATM   36  C2  UNL     1      24.343   7.355  50.648  1.00  0.00     0.048 C 
HETATM   37  C1  UNL     1      24.800   8.500  50.132  1.00  0.00     0.037 C 
ENDBRANCH  33  36
ENDBRANCH  30  32
ENDBRANCH   1  26
TORSDOF 6
ENDMDL
MODEL 8
REMARK VINA RESULT:      -8.4      3.318      7.366
REMARK  6 active torsions:
REMARK  status: ('A' for Active; 'I' for Inactive)
REMARK    1  A    between atoms: C2_2  and  C3_3 
REMARK       I    between atoms: C3_3  and  N1_5 
REMARK    2  A    between atoms: N1_5  and  C4_6 
REMARK    3  A    between atoms: C8_10  and  N2_11 
REMARK    4  A    between atoms: C9_12  and  C10_13 
REMARK    5  A    between atoms: C12_16  and  C13_17 
REMARK    6  A    between atoms: C17_24  and  N7_25 
ROOT
HETATM    1  N2  UNL     1      23.104   1.958  51.757  1.00  0.00    -0.292 N 
HETATM    2  C9  UNL     1      24.008   2.936  51.630  1.00  0.00     0.168 A 
HETATM    3  N8  UNL     1      25.084   2.661  52.418  1.00  0.00    -0.226 NA
HETATM    4  C18 UNL     1      24.855   1.490  53.054  1.00  0.00     0.086 A 
HETATM    5  C19 UNL     1      25.560   0.720  53.955  1.00  0.00     0.034 A 
HETATM    6  C20 UNL     1      25.012  -0.459  54.415  1.00  0.00     0.002 A 
HETATM    7  C21 UNL     1      23.763  -0.915  54.006  1.00  0.00     0.002 A 
HETATM    8  C22 UNL     1      23.065  -0.130  53.098  1.00  0.00     0.032 A 
HETATM    9  C23 UNL     1      23.614   1.056  52.635  1.00  0.00     0.070 A 
ENDROOT
BRANCH   2  10
HETATM   10  C10 UNL     1      23.962   4.148  50.812  1.00  0.00     0.143 C 
HETATM   11  N3  UNL     1      24.090   4.197  49.527  1.00  0.00    -0.278 NA
HETATM   12  C11 UNL     1      24.073   5.280  48.564  1.00  0.00     0.190 C 
HETATM   13  C12 UNL     1      24.791   6.493  49.041  1.00  0.00    -0.010 C 
HETATM   14  C16 UNL     1      24.829   7.071  50.231  1.00  0.00     0.128 C 
HETATM   15  N6  UNL     1      24.112   6.579  51.382  1.00  0.00    -0.241 NA
HETATM   16  C17 UNL     1      23.748   5.344  51.623  1.00  0.00     0.153 C 
BRANCH  13  17
HETATM   17  C13 UNL     1      25.613   7.211  48.072  1.00  0.00     0.003 C 
HETATM   18  C14 UNL     1      26.859   6.927  48.411  1.00  0.00     0.116 C 
HETATM   19  N4  UNL     1      27.688   7.872  48.121  1.00  0.00    -0.176 NA
HETATM   20  N5  UNL     1      27.064   8.687  47.144  1.00  0.00    -0.309 N 
HETATM   21  C15 UNL     1      25.754   8.094  46.905  1.00  0.00     0.183 C 
HETATM   22  H10 UNL     1      27.462   9.545  46.685  1.00  0.00     0.182 HD
ENDBRANCH  13  17
BRANCH  16  23
HETATM   23  N7  UNL     1      23.049   5.217  52.868  1.00  0.00    -0.382 N 
HETATM   24  H14 UNL     1      23.668   5.087  53.706  1.00  0.00     0.157 HD
HETATM   25  H15 UNL     1      22.025   5.266  52.819  1.00  0.00     0.157 HD
ENDBRANCH  16  23
ENDBRANCH   2  10
BRANCH   1  26
HETATM   26  C8  UNL     1      21.862   1.890  51.099  1.00  0.00     0.043 A 
HETATM   27  C7  UNL     1      21.903   1.353  49.810  1.00  0.00     0.030 A 
HETATM   28  C6  UNL     1      20.735   1.247  49.089  1.00  0.00     0.004 A 
HETATM   29  C5  UNL     1      19.526   1.656  49.600  1.00  0.00     0.029 A 
HETATM   30  C4  UNL     1      19.497   2.186  50.878  1.00  0.00     0.037 A 
HETATM   31  C24 UNL     1      20.659   2.300  51.616  1.00  0.00     0.059 A 
BRANCH  30  32
HETATM   32  N1  UNL     1      18.342   2.664  51.578  1.00  0.00    -0.324 N 
HETATM   33  C3  UNL     1      17.740   3.888  51.171  1.00  0.00     0.241 C 
HETATM   34  O1  UNL     1      18.175   4.586  50.214  1.00  0.00    -0.269 OA
HETATM   35  H4  UNL     1      17.974   2.095  52.372  1.00  0.00     0.169 HD
BRANCH  33  36
HETATM   36  C2  UNL     1      16.567   4.296  51.944  1.00  0.00     0.048 C 
HETATM   37  C1  UNL     1      15.490   3.874  52.613  1.00  0.00     0.037 C 
ENDBRANCH  33  36
ENDBRANCH  30  32
ENDBRANCH   1  26
TORSDOF 6
ENDMDL
MODEL 9
REMARK VINA RESULT:      -8.2      3.063      5.450
REMARK  6 active torsions:
REMARK  status: ('A' for Active; 'I' for Inactive)
REMARK    1  A    between atoms: C2_2  and  C3_3 
REMARK       I    between atoms: C3_3  and  N1_5 
REMARK    2  A    between atoms: N1_5  and  C4_6 
REMARK    3  A    between atoms: C8_10  and  N2_11 
REMARK    4  A    between atoms: C9_12  and  C10_13 
REMARK    5  A    between atoms: C12_16  and  C13_17 
REMARK    6  A    between atoms: C17_24  and  N7_25 
ROOT
HETATM    1  N2  UNL     1      24.698   2.265  51.364  1.00  0.00    -0.292 N 
HETATM    2  C9  UNL     1      23.471   1.753  51.222  1.00  0.00     0.168 A 
HETATM    3  N8  UNL     1      23.307   0.720  52.094  1.00  0.00    -0.226 NA
HETATM    4  C18 UNL     1      24.453   0.576  52.799  1.00  0.00     0.086 A 
HETATM    5  C19 UNL     1      24.879  -0.275  53.797  1.00  0.00     0.034 A 
HETATM    6  C20 UNL     1      26.153  -0.138  54.308  1.00  0.00     0.002 A 
HETATM    7  C21 UNL     1      27.040   0.833  53.856  1.00  0.00     0.002 A 
HETATM    8  C22 UNL     1      26.598   1.683  52.851  1.00  0.00     0.032 A 
HETATM    9  C23 UNL     1      25.318   1.546  52.336  1.00  0.00     0.070 A 
ENDROOT
BRANCH   2  10
HETATM   10  C10 UNL     1      22.394   2.152  50.316  1.00  0.00     0.143 C 
HETATM   11  N3  UNL     1      22.214   1.708  49.116  1.00  0.00    -0.278 NA
HETATM   12  C11 UNL     1      21.225   1.980  48.090  1.00  0.00     0.190 C 
HETATM   13  C12 UNL     1      20.867   3.420  47.995  1.00  0.00    -0.010 C 
HETATM   14  C16 UNL     1      20.670   4.333  48.935  1.00  0.00     0.128 C 
HETATM   15  N6  UNL     1      20.778   4.062  50.347  1.00  0.00    -0.241 NA
HETATM   16  C17 UNL     1      21.508   3.140  50.925  1.00  0.00     0.153 C 
BRANCH  13  17
HETATM   17  C13 UNL     1      20.690   3.982  46.660  1.00  0.00     0.003 C 
HETATM   18  C14 UNL     1      21.766   3.605  45.990  1.00  0.00     0.116 C 
HETATM   19  N4  UNL     1      22.104   4.442  45.068  1.00  0.00    -0.176 NA
HETATM   20  N5  UNL     1      20.965   5.238  44.791  1.00  0.00    -0.309 N 
HETATM   21  C15 UNL     1      19.914   4.758  45.681  1.00  0.00     0.183 C 
HETATM   22  H10 UNL     1      20.890   6.017  44.089  1.00  0.00     0.182 HD
ENDBRANCH  13  17
BRANCH  16  23
HETATM   23  N7  UNL     1      21.371   3.157  52.353  1.00  0.00    -0.382 N 
HETATM   24  H14 UNL     1      21.897   2.397  52.851  1.00  0.00     0.157 HD
HETATM   25  H15 UNL     1      20.782   3.901  52.742  1.00  0.00     0.157 HD
ENDBRANCH  16  23
ENDBRANCH   2  10
BRANCH   1  26
HETATM   26  C8  UNL     1      25.234   3.344  50.637  1.00  0.00     0.043 A 
HETATM   27  C7  UNL     1      26.435   3.074  49.977  1.00  0.00     0.030 A 
HETATM   28  C6  UNL     1      27.033   4.070  49.240  1.00  0.00     0.004 A 
HETATM   29  C5  UNL     1      26.484   5.326  49.133  1.00  0.00     0.029 A 
HETATM   30  C4  UNL     1      25.294   5.581  49.791  1.00  0.00     0.037 A 
HETATM   31  C24 UNL     1      24.678   4.594  50.535  1.00  0.00     0.059 A 
BRANCH  30  32
HETATM   32  N1  UNL     1      24.572   6.819  49.800  1.00  0.00    -0.324 N 
HETATM   33  C3  UNL     1      23.720   7.135  48.704  1.00  0.00     0.241 C 
HETATM   34  O1  UNL     1      23.564   6.373  47.710  1.00  0.00    -0.269 OA
HETATM   35  H4  UNL     1      24.694   7.457  50.618  1.00  0.00     0.169 HD
BRANCH  33  36
HETATM   36  C2  UNL     1      23.025   8.418  48.801  1.00  0.00     0.048 C 
HETATM   37  C1  UNL     1      21.860   9.021  49.054  1.00  0.00     0.037 C 
ENDBRANCH  33  36
ENDBRANCH  30  32
ENDBRANCH   1  26
TORSDOF 6
ENDMDL
