MODEL 1
REMARK VINA RESULT:      -8.1      0.000      0.000
REMARK  4 active torsions:
REMARK  status: ('A' for Active; 'I' for Inactive)
REMARK    1  A    between atoms: O1_1  and  C1_2 
REMARK    2  A    between atoms: C3_6  and  C4_7 
REMARK    3  A    between atoms: C15_18  and  S1_19 
REMARK    4  A    between atoms: C16_21  and  O2_22 
ROOT
HETATM    1  C1  UNL     1      22.333  -0.618  53.642  1.00  0.00     0.180 C 
HETATM    2  C2  UNL     1      23.468  -0.900  54.238  1.00  0.00     0.171 C 
HETATM    3  N1  UNL     1      24.689  -0.230  54.126  1.00  0.00    -0.260 N 
HETATM    4  N2  UNL     1      25.836  -0.351  54.921  1.00  0.00    -0.180 NA
HETATM    5  C3  UNL     1      26.924  -0.128  54.218  1.00  0.00     0.047 C 
HETATM    6  C9  UNL     1      26.477   0.183  52.805  1.00  0.00     0.097 C 
HETATM    7  C10 UNL     1      25.116   0.736  53.186  1.00  0.00     0.104 C 
HETATM    8  C11 UNL     1      25.326   2.126  53.723  1.00  0.00     0.006 C 
HETATM    9  C12 UNL     1      24.386   2.944  53.163  1.00  0.00    -0.020 C 
HETATM   10  C13 UNL     1      23.324   1.973  52.851  1.00  0.00     0.046 C 
HETATM   11  C14 UNL     1      22.077   2.353  52.209  1.00  0.00     0.077 C 
HETATM   12  C15 UNL     1      21.228   1.097  52.332  1.00  0.00     0.071 C 
HETATM   13  N3  UNL     1      21.276  -0.075  52.870  1.00  0.00    -0.221 NA
HETATM   14  C16 UNL     1      24.192   1.021  52.079  1.00  0.00     0.160 C 
ENDROOT
BRANCH   5  15
HETATM   15  C4  UNL     1      28.322  -0.156  54.668  1.00  0.00     0.080 A 
HETATM   16  C5  UNL     1      29.072  -1.150  53.843  1.00  0.00    -0.012 A 
HETATM   17  C6  UNL     1      30.043  -0.524  53.198  1.00  0.00    -0.003 A 
HETATM   18  C7  UNL     1      30.037   0.911  53.520  1.00  0.00    -0.003 A 
HETATM   19  C8  UNL     1      29.039   1.117  54.370  1.00  0.00    -0.012 A 
ENDBRANCH   5  15
BRANCH  14  20
HETATM   20  O2  UNL     1      24.874   1.768  51.104  1.00  0.00    -0.392 OA
HETATM   21  H17 UNL     1      25.856   1.620  51.165  1.00  0.00     0.210 HD
ENDBRANCH  14  20
BRANCH   1  22
HETATM   22  O1  UNL     1      21.163  -1.344  53.814  1.00  0.00    -0.344 OA
HETATM   23  H1  UNL     1      20.985  -1.763  54.739  1.00  0.00     0.219 HD
ENDBRANCH   1  22
BRANCH  12  24
HETATM   24  S1  UNL     1      19.615   1.078  51.554  1.00  0.00    -0.128 SA
HETATM   25  H15 UNL     1      18.775   0.267  52.371  1.00  0.00     0.108 HD
ENDBRANCH  12  24
TORSDOF 4
ENDMDL
MODEL 2
REMARK VINA RESULT:      -7.5      3.381      4.494
REMARK  4 active torsions:
REMARK  status: ('A' for Active; 'I' for Inactive)
REMARK    1  A    between atoms: O1_1  and  C1_2 
REMARK    2  A    between atoms: C3_6  and  C4_7 
REMARK    3  A    between atoms: C15_18  and  S1_19 
REMARK    4  A    between atoms: C16_21  and  O2_22 
ROOT
HETATM    1  C1  UNL     1      26.045   4.395  49.559  1.00  0.00     0.180 C 
HETATM    2  C2  UNL     1      26.802   3.552  50.223  1.00  0.00     0.171 C 
HETATM    3  N1  UNL     1      26.413   2.633  51.201  1.00  0.00    -0.260 N 
HETATM    4  N2  UNL     1      27.140   1.566  51.745  1.00  0.00    -0.180 NA
HETATM    5  C3  UNL     1      26.796   1.348  52.994  1.00  0.00     0.047 C 
HETATM    6  C9  UNL     1      25.722   2.360  53.336  1.00  0.00     0.097 C 
HETATM    7  C10 UNL     1      25.201   2.525  51.920  1.00  0.00     0.104 C 
HETATM    8  C11 UNL     1      24.356   1.321  51.605  1.00  0.00     0.006 C 
HETATM    9  C12 UNL     1      23.207   1.753  51.006  1.00  0.00    -0.020 C 
HETATM   10  C13 UNL     1      23.658   3.031  50.432  1.00  0.00     0.046 C 
HETATM   11  C14 UNL     1      22.774   3.912  49.685  1.00  0.00     0.077 C 
HETATM   12  C15 UNL     1      23.728   4.939  49.095  1.00  0.00     0.071 C 
HETATM   13  N3  UNL     1      24.994   5.176  49.016  1.00  0.00    -0.221 NA
HETATM   14  C16 UNL     1      24.218   3.597  51.706  1.00  0.00     0.160 C 
ENDROOT
BRANCH   5  15
HETATM   15  C4  UNL     1      27.314   0.332  53.918  1.00  0.00     0.080 A 
HETATM   16  C5  UNL     1      27.476  -0.955  53.177  1.00  0.00    -0.012 A 
HETATM   17  C6  UNL     1      28.750  -1.309  53.208  1.00  0.00    -0.003 A 
HETATM   18  C7  UNL     1      29.544  -0.321  53.954  1.00  0.00    -0.003 A 
HETATM   19  C8  UNL     1      28.707   0.625  54.361  1.00  0.00    -0.012 A 
ENDBRANCH   5  15
BRANCH  14  20
HETATM   20  O2  UNL     1      23.219   3.495  52.688  1.00  0.00    -0.392 OA
HETATM   21  H17 UNL     1      23.594   3.656  53.595  1.00  0.00     0.210 HD
ENDBRANCH  14  20
BRANCH   1  22
HETATM   22  O1  UNL     1      26.521   5.277  48.599  1.00  0.00    -0.344 OA
HETATM   23  H1  UNL     1      26.360   6.285  48.746  1.00  0.00     0.219 HD
ENDBRANCH   1  22
BRANCH  12  24
HETATM   24  S1  UNL     1      23.039   6.313  48.175  1.00  0.00    -0.128 SA
HETATM   25  H15 UNL     1      21.924   5.802  47.451  1.00  0.00     0.108 HD
ENDBRANCH  12  24
TORSDOF 4
ENDMDL
MODEL 3
REMARK VINA RESULT:      -7.4      4.673      6.464
REMARK  4 active torsions:
REMARK  status: ('A' for Active; 'I' for Inactive)
REMARK    1  A    between atoms: O1_1  and  C1_2 
REMARK    2  A    between atoms: C3_6  and  C4_7 
REMARK    3  A    between atoms: C15_18  and  S1_19 
REMARK    4  A    between atoms: C16_21  and  O2_22 
ROOT
HETATM    1  C1  UNL     1      25.560   4.535  49.654  1.00  0.00     0.180 C 
HETATM    2  C2  UNL     1      25.019   3.346  49.787  1.00  0.00     0.171 C 
HETATM    3  N1  UNL     1      23.986   2.961  50.646  1.00  0.00    -0.260 N 
HETATM    4  N2  UNL     1      23.230   1.782  50.640  1.00  0.00    -0.180 NA
HETATM    5  C3  UNL     1      22.858   1.453  51.857  1.00  0.00     0.047 C 
HETATM    6  C9  UNL     1      23.408   2.516  52.785  1.00  0.00     0.097 C 
HETATM    7  C10 UNL     1      23.428   3.633  51.758  1.00  0.00     0.104 C 
HETATM    8  C11 UNL     1      22.014   4.117  51.588  1.00  0.00     0.006 C 
HETATM    9  C12 UNL     1      22.030   5.484  51.595  1.00  0.00    -0.020 C 
HETATM   10  C13 UNL     1      23.405   5.747  51.140  1.00  0.00     0.046 C 
HETATM   11  C14 UNL     1      23.939   7.090  50.992  1.00  0.00     0.077 C 
HETATM   12  C15 UNL     1      25.260   6.860  50.274  1.00  0.00     0.071 C 
HETATM   13  N3  UNL     1      25.935   5.900  49.738  1.00  0.00    -0.221 NA
HETATM   14  C16 UNL     1      24.086   4.883  52.163  1.00  0.00     0.160 C 
ENDROOT
BRANCH   5  15
HETATM   15  C4  UNL     1      22.060   0.298  52.285  1.00  0.00     0.080 A 
HETATM   16  C5  UNL     1      22.888  -0.548  53.196  1.00  0.00    -0.012 A 
HETATM   17  C6  UNL     1      22.297  -0.609  54.378  1.00  0.00    -0.003 A 
HETATM   18  C7  UNL     1      21.048   0.168  54.373  1.00  0.00    -0.003 A 
HETATM   19  C8  UNL     1      20.917   0.690  53.160  1.00  0.00    -0.012 A 
ENDBRANCH   5  15
BRANCH  14  20
HETATM   20  O2  UNL     1      23.599   5.260  53.425  1.00  0.00    -0.392 OA
HETATM   21  H17 UNL     1      23.710   6.238  53.572  1.00  0.00     0.210 HD
ENDBRANCH  14  20
BRANCH   1  22
HETATM   22  O1  UNL     1      26.589   4.827  48.769  1.00  0.00    -0.344 OA
HETATM   23  H1  UNL     1      27.100   5.713  48.898  1.00  0.00     0.219 HD
ENDBRANCH   1  22
BRANCH  12  24
HETATM   24  S1  UNL     1      26.331   8.267  49.985  1.00  0.00    -0.128 SA
HETATM   25  H15 UNL     1      26.287   8.534  48.586  1.00  0.00     0.108 HD
ENDBRANCH  12  24
TORSDOF 4
ENDMDL
MODEL 4
REMARK VINA RESULT:      -7.3      4.705      6.391
REMARK  4 active torsions:
REMARK  status: ('A' for Active; 'I' for Inactive)
REMARK    1  A    between atoms: O1_1  and  C1_2 
REMARK    2  A    between atoms: C3_6  and  C4_7 
REMARK    3  A    between atoms: C15_18  and  S1_19 
REMARK    4  A    between atoms: C16_21  and  O2_22 
ROOT
HETATM    1  C1  UNL     1      23.751   5.715  51.686  1.00  0.00     0.180 C 
HETATM    2  C2  UNL     1      23.565   4.610  52.369  1.00  0.00     0.171 C 
HETATM    3  N1  UNL     1      22.976   3.419  51.936  1.00  0.00    -0.260 N 
HETATM    4  N2  UNL     1      22.982   2.160  52.550  1.00  0.00    -0.180 NA
HETATM    5  C3  UNL     1      21.879   1.497  52.279  1.00  0.00     0.047 C 
HETATM    6  C9  UNL     1      21.041   2.388  51.386  1.00  0.00     0.097 C 
HETATM    7  C10 UNL     1      22.205   3.151  50.781  1.00  0.00     0.104 C 
HETATM    8  C11 UNL     1      22.849   2.259  49.756  1.00  0.00     0.006 C 
HETATM    9  C12 UNL     1      23.083   3.001  48.634  1.00  0.00    -0.020 C 
HETATM   10  C13 UNL     1      23.174   4.353  49.210  1.00  0.00     0.046 C 
HETATM   11  C14 UNL     1      23.405   5.538  48.400  1.00  0.00     0.077 C 
HETATM   12  C15 UNL     1      23.670   6.619  49.437  1.00  0.00     0.071 C 
HETATM   13  N3  UNL     1      23.813   6.745  50.713  1.00  0.00    -0.221 NA
HETATM   14  C16 UNL     1      21.863   4.308  49.943  1.00  0.00     0.160 C 
ENDROOT
BRANCH   5  15
HETATM   15  C4  UNL     1      21.492   0.153  52.723  1.00  0.00     0.080 A 
HETATM   16  C5  UNL     1      22.728  -0.622  53.045  1.00  0.00    -0.012 A 
HETATM   17  C6  UNL     1      22.694  -0.971  54.321  1.00  0.00    -0.003 A 
HETATM   18  C7  UNL     1      21.464  -0.477  54.959  1.00  0.00    -0.003 A 
HETATM   19  C8  UNL     1      20.774   0.172  54.030  1.00  0.00    -0.012 A 
ENDBRANCH   5  15
BRANCH  14  20
HETATM   20  O2  UNL     1      20.877   3.921  49.020  1.00  0.00    -0.392 OA
HETATM   21  H17 UNL     1      19.981   3.885  49.451  1.00  0.00     0.210 HD
ENDBRANCH  14  20
BRANCH   1  22
HETATM   22  O1  UNL     1      24.350   6.857  52.201  1.00  0.00    -0.344 OA
HETATM   23  H1  UNL     1      25.098   6.737  52.900  1.00  0.00     0.219 HD
ENDBRANCH   1  22
BRANCH  12  24
HETATM   24  S1  UNL     1      23.894   8.304  48.874  1.00  0.00    -0.128 SA
HETATM   25  H15 UNL     1      23.266   9.145  49.838  1.00  0.00     0.108 HD
ENDBRANCH  12  24
TORSDOF 4
ENDMDL
MODEL 5
REMARK VINA RESULT:      -7.2      2.867      6.471
REMARK  4 active torsions:
REMARK  status: ('A' for Active; 'I' for Inactive)
REMARK    1  A    between atoms: O1_1  and  C1_2 
REMARK    2  A    between atoms: C3_6  and  C4_7 
REMARK    3  A    between atoms: C15_18  and  S1_19 
REMARK    4  A    between atoms: C16_21  and  O2_22 
ROOT
HETATM    1  C1  UNL     1      25.275  -0.264  53.697  1.00  0.00     0.180 C 
HETATM    2  C2  UNL     1      23.985  -0.371  53.478  1.00  0.00     0.171 C 
HETATM    3  N1  UNL     1      23.148   0.524  52.806  1.00  0.00    -0.260 N 
HETATM    4  N2  UNL     1      21.839   0.330  52.347  1.00  0.00    -0.180 NA
HETATM    5  C3  UNL     1      21.157   1.453  52.376  1.00  0.00     0.047 C 
HETATM    6  C9  UNL     1      22.094   2.521  52.900  1.00  0.00     0.097 C 
HETATM    7  C10 UNL     1      23.373   1.864  52.416  1.00  0.00     0.104 C 
HETATM    8  C11 UNL     1      23.475   2.107  50.935  1.00  0.00     0.006 C 
HETATM    9  C12 UNL     1      24.755   2.495  50.656  1.00  0.00    -0.020 C 
HETATM   10  C13 UNL     1      25.482   1.881  51.780  1.00  0.00     0.046 C 
HETATM   11  C14 UNL     1      26.918   2.019  51.954  1.00  0.00     0.077 C 
HETATM   12  C15 UNL     1      27.228   1.029  53.067  1.00  0.00     0.071 C 
HETATM   13  N3  UNL     1      26.635   0.128  53.775  1.00  0.00    -0.221 NA
HETATM   14  C16 UNL     1      24.632   2.472  52.868  1.00  0.00     0.160 C 
ENDROOT
BRANCH   5  15
HETATM   15  C4  UNL     1      19.761   1.681  51.983  1.00  0.00     0.080 A 
HETATM   16  C5  UNL     1      19.712   1.943  50.514  1.00  0.00    -0.012 A 
HETATM   17  C6  UNL     1      18.971   1.012  49.937  1.00  0.00    -0.003 A 
HETATM   18  C7  UNL     1      18.464   0.061  50.939  1.00  0.00    -0.003 A 
HETATM   19  C8  UNL     1      18.925   0.454  52.119  1.00  0.00    -0.012 A 
ENDBRANCH   5  15
BRANCH  14  20
HETATM   20  O2  UNL     1      24.568   3.858  52.648  1.00  0.00    -0.392 OA
HETATM   21  H17 UNL     1      23.897   4.283  53.246  1.00  0.00     0.210 HD
ENDBRANCH  14  20
BRANCH   1  22
HETATM   22  O1  UNL     1      26.030  -1.209  54.378  1.00  0.00    -0.344 OA
HETATM   23  H1  UNL     1      26.074  -2.163  53.992  1.00  0.00     0.219 HD
ENDBRANCH   1  22
BRANCH  12  24
HETATM   24  S1  UNL     1      28.902   0.950  53.698  1.00  0.00    -0.128 SA
HETATM   25  H15 UNL     1      29.732   0.559  52.608  1.00  0.00     0.108 HD
ENDBRANCH  12  24
TORSDOF 4
ENDMDL
MODEL 6
REMARK VINA RESULT:      -7.2      2.632      4.421
REMARK  4 active torsions:
REMARK  status: ('A' for Active; 'I' for Inactive)
REMARK    1  A    between atoms: O1_1  and  C1_2 
REMARK    2  A    between atoms: C3_6  and  C4_7 
REMARK    3  A    between atoms: C15_18  and  S1_19 
REMARK    4  A    between atoms: C16_21  and  O2_22 
ROOT
HETATM    1  C1  UNL     1      19.362   0.484  50.736  1.00  0.00     0.180 C 
HETATM    2  C2  UNL     1      20.601   0.846  50.500  1.00  0.00     0.171 C 
HETATM    3  N1  UNL     1      21.691   0.809  51.375  1.00  0.00    -0.260 N 
HETATM    4  N2  UNL     1      23.054   0.953  51.089  1.00  0.00    -0.180 NA
HETATM    5  C3  UNL     1      23.693   1.504  52.097  1.00  0.00     0.047 C 
HETATM    6  C9  UNL     1      22.666   1.753  53.182  1.00  0.00     0.097 C 
HETATM    7  C10 UNL     1      21.728   0.631  52.777  1.00  0.00     0.104 C 
HETATM    8  C11 UNL     1      22.332  -0.660  53.258  1.00  0.00     0.006 C 
HETATM    9  C12 UNL     1      21.344  -1.398  53.845  1.00  0.00    -0.020 C 
HETATM   10  C13 UNL     1      20.155  -0.862  53.161  1.00  0.00     0.046 C 
HETATM   11  C14 UNL     1      18.807  -1.322  53.453  1.00  0.00     0.077 C 
HETATM   12  C15 UNL     1      17.978  -0.683  52.350  1.00  0.00     0.071 C 
HETATM   13  N3  UNL     1      18.137   0.022  51.282  1.00  0.00    -0.221 NA
HETATM   14  C16 UNL     1      20.430   0.584  53.463  1.00  0.00     0.160 C 
ENDROOT
BRANCH   5  15
HETATM   15  C4  UNL     1      25.121   1.828  52.204  1.00  0.00     0.080 A 
HETATM   16  C5  UNL     1      25.435   2.152  53.627  1.00  0.00    -0.012 A 
HETATM   17  C6  UNL     1      26.332   1.289  54.075  1.00  0.00    -0.003 A 
HETATM   18  C7  UNL     1      26.696   0.329  53.022  1.00  0.00    -0.003 A 
HETATM   19  C8  UNL     1      25.992   0.645  51.943  1.00  0.00    -0.012 A 
ENDBRANCH   5  15
BRANCH  14  20
HETATM   20  O2  UNL     1      20.647   0.692  54.847  1.00  0.00    -0.392 OA
HETATM   21  H17 UNL     1      19.787   0.660  55.346  1.00  0.00     0.210 HD
ENDBRANCH  14  20
BRANCH   1  22
HETATM   22  O1  UNL     1      18.338   0.556  49.802  1.00  0.00    -0.344 OA
HETATM   23  H1  UNL     1      18.155   1.467  49.356  1.00  0.00     0.219 HD
ENDBRANCH   1  22
BRANCH  12  24
HETATM   24  S1  UNL     1      16.199  -0.894  52.389  1.00  0.00    -0.128 SA
HETATM   25  H15 UNL     1      15.800  -0.752  53.749  1.00  0.00     0.108 HD
ENDBRANCH  12  24
TORSDOF 4
ENDMDL
MODEL 7
REMARK VINA RESULT:      -7.1      3.339      4.266
REMARK  4 active torsions:
REMARK  status: ('A' for Active; 'I' for Inactive)
REMARK    1  A    between atoms: O1_1  and  C1_2 
REMARK    2  A    between atoms: C3_6  and  C4_7 
REMARK    3  A    between atoms: C15_18  and  S1_19 
REMARK    4  A    between atoms: C16_21  and  O2_22 
ROOT
HETATM    1  C1  UNL     1      21.272  -0.653  54.029  1.00  0.00     0.180 C 
HETATM    2  C2  UNL     1      22.359   0.081  53.969  1.00  0.00     0.171 C 
HETATM    3  N1  UNL     1      22.659   1.102  53.063  1.00  0.00    -0.260 N 
HETATM    4  N2  UNL     1      23.684   2.056  53.119  1.00  0.00    -0.180 NA
HETATM    5  C3  UNL     1      24.083   2.393  51.913  1.00  0.00     0.047 C 
HETATM    6  C9  UNL     1      23.243   1.597  50.936  1.00  0.00     0.097 C 
HETATM    7  C10 UNL     1      22.035   1.451  51.843  1.00  0.00     0.104 C 
HETATM    8  C11 UNL     1      21.301   2.764  51.834  1.00  0.00     0.006 C 
HETATM    9  C12 UNL     1      19.967   2.504  51.691  1.00  0.00    -0.020 C 
HETATM   10  C13 UNL     1      19.891   1.139  52.240  1.00  0.00     0.046 C 
HETATM   11  C14 UNL     1      18.650   0.386  52.299  1.00  0.00     0.077 C 
HETATM   12  C15 UNL     1      19.017  -0.818  53.154  1.00  0.00     0.071 C 
HETATM   13  N3  UNL     1      20.010  -1.270  53.842  1.00  0.00    -0.221 NA
HETATM   14  C16 UNL     1      20.970   0.553  51.375  1.00  0.00     0.160 C 
ENDROOT
BRANCH   5  15
HETATM   15  C4  UNL     1      25.127   3.352  51.533  1.00  0.00     0.080 A 
HETATM   16  C5  UNL     1      26.241   2.612  50.868  1.00  0.00    -0.012 A 
HETATM   17  C6  UNL     1      26.379   3.066  49.634  1.00  0.00    -0.003 A 
HETATM   18  C7  UNL     1      25.398   4.126  49.359  1.00  0.00    -0.003 A 
HETATM   19  C8  UNL     1      24.677   4.286  50.462  1.00  0.00    -0.012 A 
ENDBRANCH   5  15
BRANCH  14  20
HETATM   20  O2  UNL     1      20.664   0.873  50.043  1.00  0.00    -0.392 OA
HETATM   21  H17 UNL     1      21.069   0.215  49.416  1.00  0.00     0.210 HD
ENDBRANCH  14  20
BRANCH   1  22
HETATM   22  O1  UNL     1      21.059  -1.651  54.969  1.00  0.00    -0.344 OA
HETATM   23  H1  UNL     1      21.849  -2.269  55.206  1.00  0.00     0.219 HD
ENDBRANCH   1  22
BRANCH  12  24
HETATM   24  S1  UNL     1      17.789  -2.100  53.395  1.00  0.00    -0.128 SA
HETATM   25  H15 UNL     1      17.704  -2.821  52.169  1.00  0.00     0.108 HD
ENDBRANCH  12  24
TORSDOF 4
ENDMDL
MODEL 8
REMARK VINA RESULT:      -7.0      3.611      5.598
REMARK  4 active torsions:
REMARK  status: ('A' for Active; 'I' for Inactive)
REMARK    1  A    between atoms: O1_1  and  C1_2 
REMARK    2  A    between atoms: C3_6  and  C4_7 
REMARK    3  A    between atoms: C15_18  and  S1_19 
REMARK    4  A    between atoms: C16_21  and  O2_22 
ROOT
HETATM    1  C1  UNL     1      21.938   0.886  51.409  1.00  0.00     0.180 C 
HETATM    2  C2  UNL     1      22.185   1.735  50.440  1.00  0.00     0.171 C 
HETATM    3  N1  UNL     1      23.267   2.611  50.317  1.00  0.00    -0.260 N 
HETATM    4  N2  UNL     1      23.685   3.342  49.198  1.00  0.00    -0.180 NA
HETATM    5  C3  UNL     1      24.249   4.474  49.557  1.00  0.00     0.047 C 
HETATM    6  C9  UNL     1      24.220   4.517  51.071  1.00  0.00     0.097 C 
HETATM    7  C10 UNL     1      24.227   3.013  51.275  1.00  0.00     0.104 C 
HETATM    8  C11 UNL     1      25.632   2.530  51.038  1.00  0.00     0.006 C 
HETATM    9  C12 UNL     1      25.955   1.657  52.038  1.00  0.00    -0.020 C 
HETATM   10  C13 UNL     1      24.619   1.180  52.431  1.00  0.00     0.046 C 
HETATM   11  C14 UNL     1      24.412   0.218  53.501  1.00  0.00     0.077 C 
HETATM   12  C15 UNL     1      22.942  -0.145  53.360  1.00  0.00     0.071 C 
HETATM   13  N3  UNL     1      21.943   0.082  52.577  1.00  0.00    -0.221 NA
HETATM   14  C16 UNL     1      24.015   2.538  52.649  1.00  0.00     0.160 C 
ENDROOT
BRANCH   5  15
HETATM   15  C4  UNL     1      24.817   5.522  48.700  1.00  0.00     0.080 A 
HETATM   16  C5  UNL     1      24.137   6.815  49.006  1.00  0.00    -0.012 A 
HETATM   17  C6  UNL     1      25.038   7.681  49.438  1.00  0.00    -0.003 A 
HETATM   18  C7  UNL     1      26.374   7.068  49.463  1.00  0.00    -0.003 A 
HETATM   19  C8  UNL     1      26.240   5.819  49.035  1.00  0.00    -0.012 A 
ENDBRANCH   5  15
BRANCH  14  20
HETATM   20  O2  UNL     1      24.872   3.247  53.507  1.00  0.00    -0.392 OA
HETATM   21  H17 UNL     1      24.422   3.448  54.372  1.00  0.00     0.210 HD
ENDBRANCH  14  20
BRANCH   1  22
HETATM   22  O1  UNL     1      20.830   0.050  51.447  1.00  0.00    -0.344 OA
HETATM   23  H1  UNL     1      19.895   0.485  51.428  1.00  0.00     0.219 HD
ENDBRANCH   1  22
BRANCH  12  24
HETATM   24  S1  UNL     1      22.214  -1.240  54.577  1.00  0.00    -0.128 SA
HETATM   25  H15 UNL     1      22.176  -2.537  53.989  1.00  0.00     0.108 HD
ENDBRANCH  12  24
TORSDOF 4
ENDMDL
MODEL 9
REMARK VINA RESULT:      -6.8      4.835      7.047
REMARK  4 active torsions:
REMARK  status: ('A' for Active; 'I' for Inactive)
REMARK    1  A    between atoms: O1_1  and  C1_2 
REMARK    2  A    between atoms: C3_6  and  C4_7 
REMARK    3  A    between atoms: C15_18  and  S1_19 
REMARK    4  A    between atoms: C16_21  and  O2_22 
ROOT
HETATM    1  C1  UNL     1      26.870   4.565  49.169  1.00  0.00     0.180 C 
HETATM    2  C2  UNL     1      26.318   3.574  49.829  1.00  0.00     0.171 C 
HETATM    3  N1  UNL     1      25.059   3.539  50.436  1.00  0.00    -0.260 N 
HETATM    4  N2  UNL     1      24.350   2.437  50.930  1.00  0.00    -0.180 NA
HETATM    5  C3  UNL     1      23.596   2.778  51.951  1.00  0.00     0.047 C 
HETATM    6  C9  UNL     1      23.805   4.262  52.173  1.00  0.00     0.097 C 
HETATM    7  C10 UNL     1      24.162   4.591  50.735  1.00  0.00     0.104 C 
HETATM    8  C11 UNL     1      22.884   4.607  49.943  1.00  0.00     0.006 C 
HETATM    9  C12 UNL     1      22.893   5.714  49.142  1.00  0.00    -0.020 C 
HETATM   10  C13 UNL     1      24.342   5.944  49.006  1.00  0.00     0.046 C 
HETATM   11  C14 UNL     1      24.892   7.049  48.239  1.00  0.00     0.077 C 
HETATM   12  C15 UNL     1      26.377   6.724  48.181  1.00  0.00     0.071 C 
HETATM   13  N3  UNL     1      27.193   5.785  48.523  1.00  0.00    -0.221 NA
HETATM   14  C16 UNL     1      24.646   5.954  50.477  1.00  0.00     0.160 C 
ENDROOT
BRANCH   5  15
HETATM   15  C4  UNL     1      22.703   1.929  52.748  1.00  0.00     0.080 A 
HETATM   16  C5  UNL     1      21.585   1.455  51.879  1.00  0.00    -0.012 A 
HETATM   17  C6  UNL     1      21.617   0.134  51.822  1.00  0.00    -0.003 A 
HETATM   18  C7  UNL     1      22.729  -0.391  52.628  1.00  0.00    -0.003 A 
HETATM   19  C8  UNL     1      23.353   0.652  53.160  1.00  0.00    -0.012 A 
ENDBRANCH   5  15
BRANCH  14  20
HETATM   20  O2  UNL     1      23.768   6.867  51.083  1.00  0.00    -0.392 OA
HETATM   21  H17 UNL     1      22.874   6.455  51.234  1.00  0.00     0.210 HD
ENDBRANCH  14  20
BRANCH   1  22
HETATM   22  O1  UNL     1      28.133   4.509  48.596  1.00  0.00    -0.344 OA
HETATM   23  H1  UNL     1      28.528   3.581  48.385  1.00  0.00     0.219 HD
ENDBRANCH   1  22
BRANCH  12  24
HETATM   24  S1  UNL     1      27.480   7.907  47.413  1.00  0.00    -0.128 SA
HETATM   25  H15 UNL     1      28.247   7.188  46.451  1.00  0.00     0.108 HD
ENDBRANCH  12  24
TORSDOF 4
ENDMDL
