MODEL 1
REMARK VINA RESULT:      -9.4      0.000      0.000
REMARK  1 active torsions:
REMARK  status: ('A' for Active; 'I' for Inactive)
REMARK    1  A    between atoms: C10_15  and  O3_16 
ROOT
HETATM    1  O1  UNL     1      24.964   2.266  51.046  1.00  0.00    -0.247 OA
HETATM    2  C1  UNL     1      25.596   2.895  50.189  1.00  0.00     0.322 C 
HETATM    3  N1  UNL     1      26.679   2.474  51.050  1.00  0.00    -0.309 N 
HETATM    4  C2  UNL     1      26.514   1.678  52.255  1.00  0.00     0.036 A 
HETATM    5  C3  UNL     1      26.784   2.143  53.519  1.00  0.00     0.032 A 
HETATM    6  C4  UNL     1      26.545   1.315  54.588  1.00  0.00     0.039 A 
HETATM    7  C5  UNL     1      26.047   0.053  54.375  1.00  0.00     0.076 A 
HETATM    8  C6  UNL     1      25.767  -0.442  53.118  1.00  0.00     0.039 A 
HETATM    9  C7  UNL     1      26.009   0.390  52.044  1.00  0.00     0.032 A 
HETATM   10  O2  UNL     1      25.761  -0.867  55.390  1.00  0.00    -0.304 OA
HETATM   11  C8  UNL     1      24.453  -1.350  55.546  1.00  0.00     0.260 C 
HETATM   12  N2  UNL     1      23.571  -0.847  54.752  1.00  0.00    -0.230 NA
HETATM   13  C9  UNL     1      22.212  -1.158  54.707  1.00  0.00     0.237 C 
HETATM   14  N3  UNL     1      21.747  -0.535  53.653  1.00  0.00    -0.218 NA
HETATM   15  C10 UNL     1      20.392  -0.620  53.286  1.00  0.00     0.163 C 
HETATM   16  C11 UNL     1      19.808   0.055  52.317  1.00  0.00     0.057 C 
HETATM   17  C12 UNL     1      20.359   1.018  51.407  1.00  0.00     0.001 C 
HETATM   18  C13 UNL     1      19.790   1.694  50.440  1.00  0.00    -0.016 C 
HETATM   19  C14 UNL     1      20.419   2.672  49.540  1.00  0.00     0.058 C 
HETATM   20  C15 UNL     1      21.265   2.027  48.471  1.00  0.00    -0.017 C 
HETATM   21  C16 UNL     1      22.561   2.336  48.235  1.00  0.00     0.026 C 
HETATM   22  C17 UNL     1      23.097   3.108  49.377  1.00  0.00     0.346 C 
HETATM   23  N4  UNL     1      22.312   4.276  49.553  1.00  0.00     0.111 N 
HETATM   24  C18 UNL     1      21.071   3.831  50.210  1.00  0.00     0.285 C 
HETATM   25  N5  UNL     1      24.531   3.310  49.340  1.00  0.00    -0.310 N 
HETATM   26  H1  UNL     1      27.414   2.934  50.474  1.00  0.00     0.170 HD
HETATM   27  H16 UNL     1      22.007   4.720  48.641  1.00  0.00     0.319 HD
HETATM   28  H19 UNL     1      24.982   3.859  48.574  1.00  0.00     0.166 HD
ENDROOT
BRANCH  15  29
HETATM   29  O3  UNL     1      19.581  -1.506  54.019  1.00  0.00    -0.345 OA
HETATM   30  H8  UNL     1      19.902  -1.754  54.949  1.00  0.00     0.219 HD
ENDBRANCH  15  29
TORSDOF 1
ENDMDL
MODEL 2
REMARK VINA RESULT:      -9.2      1.539      5.727
REMARK  1 active torsions:
REMARK  status: ('A' for Active; 'I' for Inactive)
REMARK    1  A    between atoms: C10_15  and  O3_16 
ROOT
HETATM    1  O1  UNL     1      24.535   2.440  50.550  1.00  0.00    -0.247 OA
HETATM    2  C1  UNL     1      25.514   3.121  50.224  1.00  0.00     0.322 C 
HETATM    3  N1  UNL     1      24.529   3.623  49.291  1.00  0.00    -0.309 N 
HETATM    4  C2  UNL     1      23.152   3.166  49.219  1.00  0.00     0.036 A 
HETATM    5  C3  UNL     1      22.627   2.496  48.142  1.00  0.00     0.032 A 
HETATM    6  C4  UNL     1      21.322   2.069  48.206  1.00  0.00     0.039 A 
HETATM    7  C5  UNL     1      20.578   2.320  49.333  1.00  0.00     0.076 A 
HETATM    8  C6  UNL     1      21.077   2.992  50.430  1.00  0.00     0.039 A 
HETATM    9  C7  UNL     1      22.387   3.420  50.364  1.00  0.00     0.032 A 
HETATM   10  O2  UNL     1      19.246   1.926  49.506  1.00  0.00    -0.304 OA
HETATM   11  C8  UNL     1      18.905   1.066  50.561  1.00  0.00     0.260 C 
HETATM   12  N2  UNL     1      19.886   0.643  51.281  1.00  0.00    -0.230 NA
HETATM   13  C9  UNL     1      19.811  -0.213  52.379  1.00  0.00     0.237 C 
HETATM   14  N3  UNL     1      21.017  -0.234  52.888  1.00  0.00    -0.218 NA
HETATM   15  C10 UNL     1      21.324  -1.004  54.025  1.00  0.00     0.163 C 
HETATM   16  C11 UNL     1      22.522  -1.180  54.542  1.00  0.00     0.057 C 
HETATM   17  C12 UNL     1      23.790  -0.664  54.115  1.00  0.00     0.001 C 
HETATM   18  C13 UNL     1      24.988  -0.830  54.621  1.00  0.00    -0.016 C 
HETATM   19  C14 UNL     1      26.254  -0.267  54.129  1.00  0.00     0.058 C 
HETATM   20  C15 UNL     1      26.415   1.195  54.460  1.00  0.00    -0.017 C 
HETATM   21  C16 UNL     1      26.683   2.158  53.548  1.00  0.00     0.026 C 
HETATM   22  C17 UNL     1      26.442   1.628  52.189  1.00  0.00     0.346 C 
HETATM   23  N4  UNL     1      27.258   0.486  51.988  1.00  0.00     0.111 N 
HETATM   24  C18 UNL     1      26.604  -0.610  52.722  1.00  0.00     0.285 C 
HETATM   25  N5  UNL     1      26.485   2.628  51.142  1.00  0.00    -0.310 N 
HETATM   26  H1  UNL     1      25.187   4.296  48.845  1.00  0.00     0.170 HD
HETATM   27  H16 UNL     1      28.223   0.578  52.414  1.00  0.00     0.319 HD
HETATM   28  H19 UNL     1      27.361   3.157  50.933  1.00  0.00     0.166 HD
ENDROOT
BRANCH  15  29
HETATM   29  O3  UNL     1      20.253  -1.647  54.674  1.00  0.00    -0.345 OA
HETATM   30  H8  UNL     1      20.124  -1.436  55.659  1.00  0.00     0.219 HD
ENDBRANCH  15  29
TORSDOF 1
ENDMDL
MODEL 3
REMARK VINA RESULT:      -8.7      1.777      2.491
REMARK  1 active torsions:
REMARK  status: ('A' for Active; 'I' for Inactive)
REMARK    1  A    between atoms: C10_15  and  O3_16 
ROOT
HETATM    1  O1  UNL     1      26.036   2.195  52.128  1.00  0.00    -0.247 OA
HETATM    2  C1  UNL     1      27.129   2.531  51.659  1.00  0.00     0.322 C 
HETATM    3  N1  UNL     1      27.545   1.460  52.537  1.00  0.00    -0.309 N 
HETATM    4  C2  UNL     1      26.645   0.678  53.369  1.00  0.00     0.036 A 
HETATM    5  C3  UNL     1      26.661   0.704  54.742  1.00  0.00     0.032 A 
HETATM    6  C4  UNL     1      25.730  -0.042  55.423  1.00  0.00     0.039 A 
HETATM    7  C5  UNL     1      24.814  -0.791  54.725  1.00  0.00     0.076 A 
HETATM    8  C6  UNL     1      24.775  -0.838  53.347  1.00  0.00     0.039 A 
HETATM    9  C7  UNL     1      25.711  -0.089  52.664  1.00  0.00     0.032 A 
HETATM   10  O2  UNL     1      23.821  -1.579  55.318  1.00  0.00    -0.304 OA
HETATM   11  C8  UNL     1      22.469  -1.316  55.051  1.00  0.00     0.260 C 
HETATM   12  N2  UNL     1      22.234  -0.295  54.300  1.00  0.00    -0.230 NA
HETATM   13  C9  UNL     1      20.985   0.172  53.891  1.00  0.00     0.237 C 
HETATM   14  N3  UNL     1      21.236   1.117  53.019  1.00  0.00    -0.218 NA
HETATM   15  C10 UNL     1      20.200   1.827  52.384  1.00  0.00     0.163 C 
HETATM   16  C11 UNL     1      20.348   2.863  51.585  1.00  0.00     0.057 C 
HETATM   17  C12 UNL     1      21.544   3.529  51.157  1.00  0.00     0.001 C 
HETATM   18  C13 UNL     1      21.705   4.559  50.362  1.00  0.00    -0.016 C 
HETATM   19  C14 UNL     1      22.969   5.195  49.963  1.00  0.00     0.058 C 
HETATM   20  C15 UNL     1      23.728   4.395  48.934  1.00  0.00    -0.017 C 
HETATM   21  C16 UNL     1      25.018   4.008  49.069  1.00  0.00     0.026 C 
HETATM   22  C17 UNL     1      25.433   4.169  50.479  1.00  0.00     0.346 C 
HETATM   23  N4  UNL     1      25.259   5.525  50.859  1.00  0.00     0.111 N 
HETATM   24  C18 UNL     1      23.814   5.698  51.081  1.00  0.00     0.285 C 
HETATM   25  N5  UNL     1      26.721   3.585  50.792  1.00  0.00    -0.310 N 
HETATM   26  H1  UNL     1      28.553   1.554  52.295  1.00  0.00     0.170 HD
HETATM   27  H16 UNL     1      25.514   6.212  50.094  1.00  0.00     0.319 HD
HETATM   28  H19 UNL     1      27.599   3.936  50.346  1.00  0.00     0.166 HD
ENDROOT
BRANCH  15  29
HETATM   29  O3  UNL     1      18.883   1.392  52.622  1.00  0.00    -0.345 OA
HETATM   30  H8  UNL     1      18.304   1.989  53.204  1.00  0.00     0.219 HD
ENDBRANCH  15  29
TORSDOF 1
ENDMDL
MODEL 4
REMARK VINA RESULT:      -8.1      3.270      5.365
REMARK  1 active torsions:
REMARK  status: ('A' for Active; 'I' for Inactive)
REMARK    1  A    between atoms: C10_15  and  O3_16 
ROOT
HETATM    1  O1  UNL     1      24.053   3.198  51.248  1.00  0.00    -0.247 OA
HETATM    2  C1  UNL     1      25.286   3.112  51.266  1.00  0.00     0.322 C 
HETATM    3  N1  UNL     1      24.929   1.806  51.774  1.00  0.00    -0.309 N 
HETATM    4  C2  UNL     1      23.567   1.340  51.971  1.00  0.00     0.036 A 
HETATM    5  C3  UNL     1      23.027   1.060  53.201  1.00  0.00     0.032 A 
HETATM    6  C4  UNL     1      21.711   0.671  53.268  1.00  0.00     0.039 A 
HETATM    7  C5  UNL     1      20.970   0.572  52.115  1.00  0.00     0.076 A 
HETATM    8  C6  UNL     1      21.485   0.846  50.865  1.00  0.00     0.039 A 
HETATM    9  C7  UNL     1      22.807   1.235  50.799  1.00  0.00     0.032 A 
HETATM   10  O2  UNL     1      19.624   0.193  52.070  1.00  0.00    -0.304 OA
HETATM   11  C8  UNL     1      18.668   1.075  51.543  1.00  0.00     0.260 C 
HETATM   12  N2  UNL     1      19.110   2.231  51.182  1.00  0.00    -0.230 NA
HETATM   13  C9  UNL     1      18.368   3.276  50.633  1.00  0.00     0.237 C 
HETATM   14  N3  UNL     1      19.248   4.177  50.276  1.00  0.00    -0.218 NA
HETATM   15  C10 UNL     1      18.859   5.389  49.675  1.00  0.00     0.163 C 
HETATM   16  C11 UNL     1      19.651   6.400  49.386  1.00  0.00     0.057 C 
HETATM   17  C12 UNL     1      21.063   6.547  49.590  1.00  0.00     0.001 C 
HETATM   18  C13 UNL     1      21.863   7.546  49.306  1.00  0.00    -0.016 C 
HETATM   19  C14 UNL     1      23.311   7.630  49.544  1.00  0.00     0.058 C 
HETATM   20  C15 UNL     1      24.116   6.822  48.558  1.00  0.00    -0.017 C 
HETATM   21  C16 UNL     1      25.032   5.888  48.905  1.00  0.00     0.026 C 
HETATM   22  C17 UNL     1      24.862   5.541  50.332  1.00  0.00     0.346 C 
HETATM   23  N4  UNL     1      25.003   6.717  51.112  1.00  0.00     0.111 N 
HETATM   24  C18 UNL     1      23.738   7.456  50.960  1.00  0.00     0.285 C 
HETATM   25  N5  UNL     1      25.639   4.398  50.765  1.00  0.00    -0.310 N 
HETATM   26  H1  UNL     1      25.918   1.497  51.881  1.00  0.00     0.170 HD
HETATM   27  H16 UNL     1      25.758   7.370  50.757  1.00  0.00     0.319 HD
HETATM   28  H19 UNL     1      26.683   4.414  50.748  1.00  0.00     0.166 HD
ENDROOT
BRANCH  15  29
HETATM   29  O3  UNL     1      17.497   5.538  49.351  1.00  0.00    -0.345 OA
HETATM   30  H8  UNL     1      16.832   5.047  49.941  1.00  0.00     0.219 HD
ENDBRANCH  15  29
TORSDOF 1
ENDMDL
MODEL 5
REMARK VINA RESULT:      -8.1      1.809      5.230
REMARK  1 active torsions:
REMARK  status: ('A' for Active; 'I' for Inactive)
REMARK    1  A    between atoms: C10_15  and  O3_16 
ROOT
HETATM    1  O1  UNL     1      21.028   2.623  51.319  1.00  0.00    -0.247 OA
HETATM    2  C1  UNL     1      20.242   3.424  50.799  1.00  0.00     0.322 C 
HETATM    3  N1  UNL     1      19.313   2.580  51.518  1.00  0.00    -0.309 N 
HETATM    4  C2  UNL     1      19.694   1.438  52.332  1.00  0.00     0.036 A 
HETATM    5  C3  UNL     1      19.362   0.141  52.028  1.00  0.00     0.032 A 
HETATM    6  C4  UNL     1      19.819  -0.863  52.848  1.00  0.00     0.039 A 
HETATM    7  C5  UNL     1      20.591  -0.552  53.941  1.00  0.00     0.076 A 
HETATM    8  C6  UNL     1      20.939   0.741  54.272  1.00  0.00     0.039 A 
HETATM    9  C7  UNL     1      20.479   1.748  53.449  1.00  0.00     0.032 A 
HETATM   10  O2  UNL     1      21.113  -1.494  54.834  1.00  0.00    -0.304 OA
HETATM   11  C8  UNL     1      22.501  -1.597  55.007  1.00  0.00     0.260 C 
HETATM   12  N2  UNL     1      23.218  -0.830  54.260  1.00  0.00    -0.230 NA
HETATM   13  C9  UNL     1      24.610  -0.744  54.241  1.00  0.00     0.237 C 
HETATM   14  N3  UNL     1      24.885   0.269  53.458  1.00  0.00    -0.218 NA
HETATM   15  C10 UNL     1      26.212   0.660  53.198  1.00  0.00     0.163 C 
HETATM   16  C11 UNL     1      26.593   1.586  52.343  1.00  0.00     0.057 C 
HETATM   17  C12 UNL     1      25.807   2.416  51.477  1.00  0.00     0.001 C 
HETATM   18  C13 UNL     1      26.173   3.340  50.623  1.00  0.00    -0.016 C 
HETATM   19  C14 UNL     1      25.308   4.158  49.761  1.00  0.00     0.058 C 
HETATM   20  C15 UNL     1      24.603   5.259  50.513  1.00  0.00    -0.017 C 
HETATM   21  C16 UNL     1      23.264   5.455  50.500  1.00  0.00     0.026 C 
HETATM   22  C17 UNL     1      22.598   4.253  49.954  1.00  0.00     0.346 C 
HETATM   23  N4  UNL     1      23.095   4.004  48.649  1.00  0.00     0.111 N 
HETATM   24  C18 UNL     1      24.424   3.398  48.834  1.00  0.00     0.285 C 
HETATM   25  N5  UNL     1      21.156   4.255  50.091  1.00  0.00    -0.310 N 
HETATM   26  H1  UNL     1      18.474   3.112  51.205  1.00  0.00     0.170 HD
HETATM   27  H16 UNL     1      23.260   4.886  48.086  1.00  0.00     0.319 HD
HETATM   28  H19 UNL     1      20.566   4.973  49.612  1.00  0.00     0.166 HD
ENDROOT
BRANCH  15  29
HETATM   29  O3  UNL     1      27.228   0.004  53.918  1.00  0.00    -0.345 OA
HETATM   30  H8  UNL     1      26.933  -0.716  54.569  1.00  0.00     0.219 HD
ENDBRANCH  15  29
TORSDOF 1
ENDMDL
MODEL 6
REMARK VINA RESULT:      -7.7      2.493      3.461
REMARK  1 active torsions:
REMARK  status: ('A' for Active; 'I' for Inactive)
REMARK    1  A    between atoms: C10_15  and  O3_16 
ROOT
HETATM    1  O1  UNL     1      21.255   3.604  50.455  1.00  0.00    -0.247 OA
HETATM    2  C1  UNL     1      21.343   4.521  49.630  1.00  0.00     0.322 C 
HETATM    3  N1  UNL     1      22.728   4.398  50.028  1.00  0.00    -0.309 N 
HETATM    4  C2  UNL     1      23.225   3.445  51.007  1.00  0.00     0.036 A 
HETATM    5  C3  UNL     1      23.764   3.806  52.217  1.00  0.00     0.032 A 
HETATM    6  C4  UNL     1      24.157   2.814  53.083  1.00  0.00     0.039 A 
HETATM    7  C5  UNL     1      24.004   1.497  52.724  1.00  0.00     0.076 A 
HETATM    8  C6  UNL     1      23.467   1.104  51.516  1.00  0.00     0.039 A 
HETATM    9  C7  UNL     1      23.074   2.101  50.647  1.00  0.00     0.032 A 
HETATM   10  O2  UNL     1      24.363   0.411  53.531  1.00  0.00    -0.304 OA
HETATM   11  C8  UNL     1      23.388  -0.516  53.927  1.00  0.00     0.260 C 
HETATM   12  N2  UNL     1      22.181  -0.256  53.555  1.00  0.00    -0.230 NA
HETATM   13  C9  UNL     1      21.042  -1.015  53.819  1.00  0.00     0.237 C 
HETATM   14  N3  UNL     1      20.085  -0.463  53.116  1.00  0.00    -0.218 NA
HETATM   15  C10 UNL     1      18.772  -0.968  53.134  1.00  0.00     0.163 C 
HETATM   16  C11 UNL     1      17.723  -0.421  52.556  1.00  0.00     0.057 C 
HETATM   17  C12 UNL     1      17.625   0.784  51.784  1.00  0.00     0.001 C 
HETATM   18  C13 UNL     1      16.588   1.338  51.203  1.00  0.00    -0.016 C 
HETATM   19  C14 UNL     1      16.559   2.583  50.422  1.00  0.00     0.058 C 
HETATM   20  C15 UNL     1      17.136   2.421  49.038  1.00  0.00    -0.017 C 
HETATM   21  C16 UNL     1      18.123   3.194  48.528  1.00  0.00     0.026 C 
HETATM   22  C17 UNL     1      18.770   3.948  49.624  1.00  0.00     0.346 C 
HETATM   23  N4  UNL     1      17.790   4.733  50.284  1.00  0.00     0.111 N 
HETATM   24  C18 UNL     1      17.035   3.799  51.137  1.00  0.00     0.285 C 
HETATM   25  N5  UNL     1      19.980   4.643  49.236  1.00  0.00    -0.310 N 
HETATM   26  H1  UNL     1      23.054   5.158  49.396  1.00  0.00     0.170 HD
HETATM   27  H16 UNL     1      17.077   5.157  49.626  1.00  0.00     0.319 HD
HETATM   28  H19 UNL     1      19.962   5.411  48.528  1.00  0.00     0.166 HD
ENDROOT
BRANCH  15  29
HETATM   29  O3  UNL     1      18.556  -2.171  53.833  1.00  0.00    -0.345 OA
HETATM   30  H8  UNL     1      17.619  -2.560  53.792  1.00  0.00     0.219 HD
ENDBRANCH  15  29
TORSDOF 1
ENDMDL
MODEL 7
REMARK VINA RESULT:      -7.7      3.060      6.145
REMARK  1 active torsions:
REMARK  status: ('A' for Active; 'I' for Inactive)
REMARK    1  A    between atoms: C10_15  and  O3_16 
ROOT
HETATM    1  O1  UNL     1      21.169   4.047  50.865  1.00  0.00    -0.247 OA
HETATM    2  C1  UNL     1      19.984   4.350  51.046  1.00  0.00     0.322 C 
HETATM    3  N1  UNL     1      20.075   3.163  51.866  1.00  0.00    -0.309 N 
HETATM    4  C2  UNL     1      21.277   2.364  52.034  1.00  0.00     0.036 A 
HETATM    5  C3  UNL     1      21.402   1.071  51.591  1.00  0.00     0.032 A 
HETATM    6  C4  UNL     1      22.605   0.430  51.764  1.00  0.00     0.039 A 
HETATM    7  C5  UNL     1      23.647   1.090  52.369  1.00  0.00     0.076 A 
HETATM    8  C6  UNL     1      23.552   2.388  52.825  1.00  0.00     0.039 A 
HETATM    9  C7  UNL     1      22.342   3.030  52.652  1.00  0.00     0.032 A 
HETATM   10  O2  UNL     1      24.913   0.535  52.588  1.00  0.00    -0.304 OA
HETATM   11  C8  UNL     1      26.045   1.134  52.015  1.00  0.00     0.260 C 
HETATM   12  N2  UNL     1      25.819   2.151  51.256  1.00  0.00    -0.230 NA
HETATM   13  C9  UNL     1      26.767   2.914  50.576  1.00  0.00     0.237 C 
HETATM   14  N3  UNL     1      26.104   3.925  50.073  1.00  0.00    -0.218 NA
HETATM   15  C10 UNL     1      26.743   4.920  49.310  1.00  0.00     0.163 C 
HETATM   16  C11 UNL     1      26.151   5.907  48.671  1.00  0.00     0.057 C 
HETATM   17  C12 UNL     1      24.757   6.233  48.575  1.00  0.00     0.001 C 
HETATM   18  C13 UNL     1      24.156   7.212  47.943  1.00  0.00    -0.016 C 
HETATM   19  C14 UNL     1      22.713   7.488  47.887  1.00  0.00     0.058 C 
HETATM   20  C15 UNL     1      22.182   8.101  49.159  1.00  0.00    -0.017 C 
HETATM   21  C16 UNL     1      21.138   7.609  49.864  1.00  0.00     0.026 C 
HETATM   22  C17 UNL     1      20.847   6.231  49.412  1.00  0.00     0.346 C 
HETATM   23  N4  UNL     1      20.567   6.252  48.022  1.00  0.00     0.111 N 
HETATM   24  C18 UNL     1      21.870   6.384  47.350  1.00  0.00     0.285 C 
HETATM   25  N5  UNL     1      19.894   5.520  50.239  1.00  0.00    -0.310 N 
HETATM   26  H1  UNL     1      19.079   3.207  52.169  1.00  0.00     0.170 HD
HETATM   27  H16 UNL     1      20.003   7.096  47.719  1.00  0.00     0.319 HD
HETATM   28  H19 UNL     1      18.906   5.849  50.334  1.00  0.00     0.166 HD
ENDROOT
BRANCH  15  29
HETATM   29  O3  UNL     1      28.146   4.858  49.220  1.00  0.00    -0.345 OA
HETATM   30  H8  UNL     1      28.564   5.205  48.363  1.00  0.00     0.219 HD
ENDBRANCH  15  29
TORSDOF 1
ENDMDL
MODEL 8
REMARK VINA RESULT:      -7.7     10.707     13.987
REMARK  1 active torsions:
REMARK  status: ('A' for Active; 'I' for Inactive)
REMARK    1  A    between atoms: C10_15  and  O3_16 
ROOT
HETATM    1  O1  UNL     1      31.807   6.784  48.255  1.00  0.00    -0.247 OA
HETATM    2  C1  UNL     1      31.558   6.296  49.363  1.00  0.00     0.322 C 
HETATM    3  N1  UNL     1      30.773   7.509  49.434  1.00  0.00    -0.309 N 
HETATM    4  C2  UNL     1      30.687   8.499  48.374  1.00  0.00     0.036 A 
HETATM    5  C3  UNL     1      31.167   9.780  48.487  1.00  0.00     0.032 A 
HETATM    6  C4  UNL     1      31.072  10.616  47.400  1.00  0.00     0.039 A 
HETATM    7  C5  UNL     1      30.505  10.157  46.236  1.00  0.00     0.076 A 
HETATM    8  C6  UNL     1      30.013   8.876  46.093  1.00  0.00     0.039 A 
HETATM    9  C7  UNL     1      30.108   8.039  47.185  1.00  0.00     0.032 A 
HETATM   10  O2  UNL     1      30.365  10.919  45.071  1.00  0.00    -0.304 OA
HETATM   11  C8  UNL     1      30.980  10.497  43.883  1.00  0.00     0.260 C 
HETATM   12  N2  UNL     1      31.702   9.433  43.972  1.00  0.00    -0.230 NA
HETATM   13  C9  UNL     1      32.411   8.814  42.943  1.00  0.00     0.237 C 
HETATM   14  N3  UNL     1      32.854   7.692  43.452  1.00  0.00    -0.218 NA
HETATM   15  C10 UNL     1      33.624   6.792  42.692  1.00  0.00     0.163 C 
HETATM   16  C11 UNL     1      34.207   5.700  43.141  1.00  0.00     0.057 C 
HETATM   17  C12 UNL     1      34.224   5.146  44.464  1.00  0.00     0.001 C 
HETATM   18  C13 UNL     1      34.799   4.061  44.923  1.00  0.00    -0.016 C 
HETATM   19  C14 UNL     1      34.775   3.549  46.301  1.00  0.00     0.058 C 
HETATM   20  C15 UNL     1      33.463   2.899  46.663  1.00  0.00    -0.017 C 
HETATM   21  C16 UNL     1      32.717   3.236  47.740  1.00  0.00     0.026 C 
HETATM   22  C17 UNL     1      33.188   4.531  48.277  1.00  0.00     0.346 C 
HETATM   23  N4  UNL     1      34.561   4.419  48.614  1.00  0.00     0.111 N 
HETATM   24  C18 UNL     1      35.295   4.481  47.340  1.00  0.00     0.285 C 
HETATM   25  N5  UNL     1      32.331   5.101  49.295  1.00  0.00    -0.310 N 
HETATM   26  H1  UNL     1      30.419   7.311  50.392  1.00  0.00     0.170 HD
HETATM   27  H16 UNL     1      34.814   3.484  49.043  1.00  0.00     0.319 HD
HETATM   28  H19 UNL     1      32.177   4.618  50.209  1.00  0.00     0.166 HD
ENDROOT
BRANCH  15  29
HETATM   29  O3  UNL     1      33.787   7.081  41.324  1.00  0.00    -0.345 OA
HETATM   30  H8  UNL     1      34.411   6.475  40.801  1.00  0.00     0.219 HD
ENDBRANCH  15  29
TORSDOF 1
ENDMDL
MODEL 9
REMARK VINA RESULT:      -7.6      9.154     12.630
REMARK  1 active torsions:
REMARK  status: ('A' for Active; 'I' for Inactive)
REMARK    1  A    between atoms: C10_15  and  O3_16 
ROOT
HETATM    1  O1  UNL     1      32.440  10.158  47.215  1.00  0.00    -0.247 OA
HETATM    2  C1  UNL     1      33.545  10.694  47.066  1.00  0.00     0.322 C 
HETATM    3  N1  UNL     1      32.711  11.864  47.230  1.00  0.00    -0.309 N 
HETATM    4  C2  UNL     1      31.274  11.831  47.444  1.00  0.00     0.036 A 
HETATM    5  C3  UNL     1      30.357  12.316  46.544  1.00  0.00     0.032 A 
HETATM    6  C4  UNL     1      29.021  12.187  46.835  1.00  0.00     0.039 A 
HETATM    7  C5  UNL     1      28.633  11.582  48.006  1.00  0.00     0.076 A 
HETATM    8  C6  UNL     1      29.530  11.088  48.929  1.00  0.00     0.039 A 
HETATM    9  C7  UNL     1      30.873  11.218  48.637  1.00  0.00     0.032 A 
HETATM   10  O2  UNL     1      27.302  11.394  48.395  1.00  0.00    -0.304 OA
HETATM   11  C8  UNL     1      26.817  10.096  48.614  1.00  0.00     0.260 C 
HETATM   12  N2  UNL     1      27.646   9.139  48.373  1.00  0.00    -0.230 NA
HETATM   13  C9  UNL     1      27.408   7.771  48.511  1.00  0.00     0.237 C 
HETATM   14  N3  UNL     1      28.567   7.195  48.317  1.00  0.00    -0.218 NA
HETATM   15  C10 UNL     1      28.715   5.797  48.379  1.00  0.00     0.163 C 
HETATM   16  C11 UNL     1      29.806   5.120  48.090  1.00  0.00     0.057 C 
HETATM   17  C12 UNL     1      31.089   5.588  47.650  1.00  0.00     0.001 C 
HETATM   18  C13 UNL     1      32.181   4.925  47.359  1.00  0.00    -0.016 C 
HETATM   19  C14 UNL     1      33.470   5.474  46.912  1.00  0.00     0.058 C 
HETATM   20  C15 UNL     1      34.258   6.108  48.030  1.00  0.00    -0.017 C 
HETATM   21  C16 UNL     1      34.743   7.371  48.000  1.00  0.00     0.026 C 
HETATM   22  C17 UNL     1      34.093   8.120  46.902  1.00  0.00     0.346 C 
HETATM   23  N4  UNL     1      34.334   7.445  45.678  1.00  0.00     0.111 N 
HETATM   24  C18 UNL     1      33.420   6.291  45.668  1.00  0.00     0.285 C 
HETATM   25  N5  UNL     1      34.367   9.542  46.906  1.00  0.00    -0.310 N 
HETATM   26  H1  UNL     1      33.504  12.532  47.133  1.00  0.00     0.170 HD
HETATM   27  H16 UNL     1      35.309   7.037  45.607  1.00  0.00     0.319 HD
HETATM   28  H19 UNL     1      35.337   9.908  46.771  1.00  0.00     0.166 HD
ENDROOT
BRANCH  15  29
HETATM   29  O3  UNL     1      27.595   5.051  48.791  1.00  0.00    -0.345 OA
HETATM   30  H8  UNL     1      27.639   4.634  49.715  1.00  0.00     0.219 HD
ENDBRANCH  15  29
TORSDOF 1
ENDMDL
