MODEL 1
REMARK VINA RESULT:      -8.1      0.000      0.000
REMARK  4 active torsions:
REMARK  status: ('A' for Active; 'I' for Inactive)
REMARK    1  A    between atoms: O1_2  and  C2_3 
REMARK    2  A    between atoms: C6_9  and  C7_10 
REMARK    3  A    between atoms: C17_21  and  O2_22 
REMARK    4  A    between atoms: O2_22  and  N3_23 
ROOT
HETATM    1  C2  UNL     1      27.362   0.428  53.889  1.00  0.00     0.105 A 
HETATM    2  C3  UNL     1      26.355  -0.348  54.425  1.00  0.00     0.072 A 
HETATM    3  C4  UNL     1      25.044  -0.148  54.032  1.00  0.00     0.073 A 
HETATM    4  N1  UNL     1      24.095  -0.939  54.590  1.00  0.00    -0.241 NA
HETATM    5  C5  UNL     1      22.815  -0.735  54.199  1.00  0.00     0.234 A 
HETATM    6  N2  UNL     1      22.475   0.218  53.284  1.00  0.00    -0.240 NA
HETATM    7  C6  UNL     1      23.427   1.001  52.733  1.00  0.00     0.082 A 
HETATM    8  C15 UNL     1      24.753   0.840  53.095  1.00  0.00     0.025 A 
HETATM    9  C16 UNL     1      25.753   1.620  52.555  1.00  0.00     0.057 A 
HETATM   10  C17 UNL     1      27.063   1.412  52.954  1.00  0.00     0.126 A 
ENDROOT
BRANCH   7  11
HETATM   11  C7  UNL     1      23.046   2.020  51.754  1.00  0.00     0.006 C 
HETATM   12  C8  UNL     1      22.934   1.699  50.478  1.00  0.00     0.001 C 
HETATM   13  C9  UNL     1      22.676   2.643  49.649  1.00  0.00    -0.001 C 
HETATM   14  C10 UNL     1      23.058   3.869  49.883  1.00  0.00    -0.016 C 
HETATM   15  P1  UNL     1      23.841   5.344  49.067  1.00  0.00    -0.093 P 
HETATM   16  C13 UNL     1      22.810   4.311  51.271  1.00  0.00    -0.045 C 
HETATM   17  C11 UNL     1      23.839   6.407  50.624  1.00  0.00     0.041 C 
HETATM   18  H6  UNL     1      22.925   5.912  48.101  1.00  0.00     0.062 HD
HETATM   19  C12 UNL     1      22.611   5.786  51.303  1.00  0.00     0.044 C 
HETATM   20  C14 UNL     1      22.799   3.379  52.242  1.00  0.00     0.022 C 
ENDBRANCH   7  11
BRANCH  10  21
HETATM   21  O2  UNL     1      27.994   2.251  52.351  1.00  0.00    -0.264 OA
BRANCH  21  22
HETATM   22  N3  UNL     1      28.957   2.928  53.093  1.00  0.00    -0.209 NA
HETATM   23  H13 UNL     1      29.806   3.122  52.511  1.00  0.00     0.150 HD
HETATM   24  H14 UNL     1      28.612   3.870  53.409  1.00  0.00     0.150 HD
ENDBRANCH  21  22
ENDBRANCH  10  21
BRANCH   1  25
HETATM   25  O1  UNL     1      28.716   0.344  54.185  1.00  0.00    -0.353 OA
HETATM   26  C1  UNL     1      29.424  -0.776  53.684  1.00  0.00     0.210 C 
ENDBRANCH   1  25
TORSDOF 4
ENDMDL
MODEL 2
REMARK VINA RESULT:      -7.5      3.735      6.124
REMARK  4 active torsions:
REMARK  status: ('A' for Active; 'I' for Inactive)
REMARK    1  A    between atoms: O1_2  and  C2_3 
REMARK    2  A    between atoms: C6_9  and  C7_10 
REMARK    3  A    between atoms: C17_21  and  O2_22 
REMARK    4  A    between atoms: O2_22  and  N3_23 
ROOT
HETATM    1  C2  UNL     1      20.759   1.317  51.800  1.00  0.00     0.105 A 
HETATM    2  C3  UNL     1      20.563   0.560  52.937  1.00  0.00     0.072 A 
HETATM    3  C4  UNL     1      21.648  -0.000  53.589  1.00  0.00     0.073 A 
HETATM    4  N1  UNL     1      21.398  -0.735  54.701  1.00  0.00    -0.241 NA
HETATM    5  C5  UNL     1      22.466  -1.279  55.333  1.00  0.00     0.234 A 
HETATM    6  N2  UNL     1      23.743  -1.105  54.886  1.00  0.00    -0.240 NA
HETATM    7  C6  UNL     1      23.982  -0.371  53.777  1.00  0.00     0.082 A 
HETATM    8  C15 UNL     1      22.930   0.208  53.089  1.00  0.00     0.025 A 
HETATM    9  C16 UNL     1      23.133   0.964  51.954  1.00  0.00     0.057 A 
HETATM   10  C17 UNL     1      22.042   1.520  51.308  1.00  0.00     0.126 A 
ENDROOT
BRANCH   7  11
HETATM   11  C7  UNL     1      25.357  -0.196  53.311  1.00  0.00     0.006 C 
HETATM   12  C8  UNL     1      25.981  -1.192  52.709  1.00  0.00     0.001 C 
HETATM   13  C9  UNL     1      27.211  -1.017  52.391  1.00  0.00    -0.001 C 
HETATM   14  C10 UNL     1      27.978  -0.216  53.079  1.00  0.00    -0.016 C 
HETATM   15  P1  UNL     1      29.672  -0.092  53.832  1.00  0.00    -0.093 P 
HETATM   16  C13 UNL     1      27.337   1.073  53.415  1.00  0.00    -0.045 C 
HETATM   17  C11 UNL     1      29.390   1.614  54.582  1.00  0.00     0.041 C 
HETATM   18  H6  UNL     1      30.667   0.006  52.785  1.00  0.00     0.062 HD
HETATM   19  C12 UNL     1      28.373   2.132  53.555  1.00  0.00     0.044 C 
HETATM   20  C14 UNL     1      25.996   1.103  53.538  1.00  0.00     0.022 C 
ENDBRANCH   7  11
BRANCH  10  21
HETATM   21  O2  UNL     1      22.355   2.262  50.174  1.00  0.00    -0.264 OA
BRANCH  21  22
HETATM   22  N3  UNL     1      22.156   1.759  48.892  1.00  0.00    -0.209 NA
HETATM   23  H13 UNL     1      22.014   0.721  48.919  1.00  0.00     0.150 HD
HETATM   24  H14 UNL     1      21.284   2.150  48.452  1.00  0.00     0.150 HD
ENDBRANCH  21  22
ENDBRANCH  10  21
BRANCH   1  25
HETATM   25  O1  UNL     1      19.774   1.938  51.043  1.00  0.00    -0.353 OA
HETATM   26  C1  UNL     1      18.878   1.104  50.330  1.00  0.00     0.210 C 
ENDBRANCH   1  25
TORSDOF 4
ENDMDL
MODEL 3
REMARK VINA RESULT:      -7.5      2.555      3.691
REMARK  4 active torsions:
REMARK  status: ('A' for Active; 'I' for Inactive)
REMARK    1  A    between atoms: O1_2  and  C2_3 
REMARK    2  A    between atoms: C6_9  and  C7_10 
REMARK    3  A    between atoms: C17_21  and  O2_22 
REMARK    4  A    between atoms: O2_22  and  N3_23 
ROOT
HETATM    1  C2  UNL     1      27.113   0.112  53.699  1.00  0.00     0.105 A 
HETATM    2  C3  UNL     1      27.495   1.090  52.803  1.00  0.00     0.072 A 
HETATM    3  C4  UNL     1      26.540   1.738  52.039  1.00  0.00     0.073 A 
HETATM    4  N1  UNL     1      26.970   2.690  51.176  1.00  0.00    -0.241 NA
HETATM    5  C5  UNL     1      26.029   3.319  50.433  1.00  0.00     0.234 A 
HETATM    6  N2  UNL     1      24.701   3.022  50.535  1.00  0.00    -0.240 NA
HETATM    7  C6  UNL     1      24.282   2.071  51.398  1.00  0.00     0.082 A 
HETATM    8  C15 UNL     1      25.199   1.395  52.183  1.00  0.00     0.025 A 
HETATM    9  C16 UNL     1      24.810   0.419  53.076  1.00  0.00     0.057 A 
HETATM   10  C17 UNL     1      25.772  -0.225  53.837  1.00  0.00     0.126 A 
ENDROOT
BRANCH   7  11
HETATM   11  C7  UNL     1      22.855   1.764  51.495  1.00  0.00     0.006 C 
HETATM   12  C8  UNL     1      22.413   0.569  51.147  1.00  0.00     0.001 C 
HETATM   13  C9  UNL     1      21.145   0.374  51.172  1.00  0.00    -0.001 C 
HETATM   14  C10 UNL     1      20.308   1.356  50.975  1.00  0.00    -0.016 C 
HETATM   15  P1  UNL     1      18.750   1.797  50.064  1.00  0.00    -0.093 P 
HETATM   16  C13 UNL     1      20.662   2.591  51.707  1.00  0.00    -0.045 C 
HETATM   17  C11 UNL     1      18.713   3.584  50.663  1.00  0.00     0.041 C 
HETATM   18  H6  UNL     1      17.630   1.079  50.636  1.00  0.00     0.062 HD
HETATM   19  C12 UNL     1      19.430   3.372  52.004  1.00  0.00     0.044 C 
HETATM   20  C14 UNL     1      21.960   2.817  51.982  1.00  0.00     0.022 C 
ENDBRANCH   7  11
BRANCH  10  21
HETATM   21  O2  UNL     1      25.276  -1.192  54.704  1.00  0.00    -0.264 OA
BRANCH  21  22
HETATM   22  N3  UNL     1      25.404  -1.071  56.084  1.00  0.00    -0.209 NA
HETATM   23  H13 UNL     1      24.980  -1.895  56.571  1.00  0.00     0.150 HD
HETATM   24  H14 UNL     1      26.414  -1.060  56.381  1.00  0.00     0.150 HD
ENDBRANCH  21  22
ENDBRANCH  10  21
BRANCH   1  25
HETATM   25  O1  UNL     1      27.953  -0.621  54.528  1.00  0.00    -0.353 OA
HETATM   26  C1  UNL     1      29.327  -0.665  54.188  1.00  0.00     0.210 C 
ENDBRANCH   1  25
TORSDOF 4
ENDMDL
MODEL 4
REMARK VINA RESULT:      -7.2      2.203      2.487
REMARK  4 active torsions:
REMARK  status: ('A' for Active; 'I' for Inactive)
REMARK    1  A    between atoms: O1_2  and  C2_3 
REMARK    2  A    between atoms: C6_9  and  C7_10 
REMARK    3  A    between atoms: C17_21  and  O2_22 
REMARK    4  A    between atoms: O2_22  and  N3_23 
ROOT
HETATM    1  C2  UNL     1      26.530   1.972  52.427  1.00  0.00     0.105 A 
HETATM    2  C3  UNL     1      26.110   0.922  53.217  1.00  0.00     0.072 A 
HETATM    3  C4  UNL     1      24.801   0.479  53.140  1.00  0.00     0.073 A 
HETATM    4  N1  UNL     1      24.443  -0.556  53.939  1.00  0.00    -0.241 NA
HETATM    5  C5  UNL     1      23.161  -0.983  53.857  1.00  0.00     0.234 A 
HETATM    6  N2  UNL     1      22.255  -0.411  53.012  1.00  0.00    -0.240 NA
HETATM    7  C6  UNL     1      22.621   0.620  52.220  1.00  0.00     0.082 A 
HETATM    8  C15 UNL     1      23.918   1.100  52.261  1.00  0.00     0.025 A 
HETATM    9  C16 UNL     1      24.331   2.149  51.468  1.00  0.00     0.057 A 
HETATM   10  C17 UNL     1      25.642   2.587  51.552  1.00  0.00     0.126 A 
ENDROOT
BRANCH   7  11
HETATM   11  C7  UNL     1      21.637   1.223  51.321  1.00  0.00     0.006 C 
HETATM   12  C8  UNL     1      21.485   0.750  50.097  1.00  0.00     0.001 C 
HETATM   13  C9  UNL     1      20.668   1.363  49.321  1.00  0.00    -0.001 C 
HETATM   14  C10 UNL     1      20.441   2.641  49.455  1.00  0.00    -0.016 C 
HETATM   15  P1  UNL     1      20.263   4.211  48.478  1.00  0.00    -0.093 P 
HETATM   16  C13 UNL     1      20.244   3.063  50.858  1.00  0.00    -0.045 C 
HETATM   17  C11 UNL     1      20.005   5.311  49.987  1.00  0.00     0.041 C 
HETATM   18  H6  UNL     1      19.040   4.170  47.704  1.00  0.00     0.062 HD
HETATM   19  C12 UNL     1      19.364   4.263  50.907  1.00  0.00     0.044 C 
HETATM   20  C14 UNL     1      20.849   2.350  51.827  1.00  0.00     0.022 C 
ENDBRANCH   7  11
BRANCH  10  21
HETATM   21  O2  UNL     1      25.955   3.650  50.712  1.00  0.00    -0.264 OA
BRANCH  21  22
HETATM   22  N3  UNL     1      27.104   3.648  49.927  1.00  0.00    -0.209 NA
HETATM   23  H13 UNL     1      27.382   4.625  49.673  1.00  0.00     0.150 HD
HETATM   24  H14 UNL     1      27.928   3.248  50.446  1.00  0.00     0.150 HD
ENDBRANCH  21  22
ENDBRANCH  10  21
BRANCH   1  25
HETATM   25  O1  UNL     1      27.804   2.524  52.395  1.00  0.00    -0.353 OA
HETATM   26  C1  UNL     1      28.590   2.413  53.568  1.00  0.00     0.210 C 
ENDBRANCH   1  25
TORSDOF 4
ENDMDL
MODEL 5
REMARK VINA RESULT:      -7.0      2.679      4.272
REMARK  4 active torsions:
REMARK  status: ('A' for Active; 'I' for Inactive)
REMARK    1  A    between atoms: O1_2  and  C2_3 
REMARK    2  A    between atoms: C6_9  and  C7_10 
REMARK    3  A    between atoms: C17_21  and  O2_22 
REMARK    4  A    between atoms: O2_22  and  N3_23 
ROOT
HETATM    1  C2  UNL     1      23.369  -0.357  53.175  1.00  0.00     0.105 A 
HETATM    2  C3  UNL     1      24.679  -0.443  53.600  1.00  0.00     0.072 A 
HETATM    3  C4  UNL     1      25.620   0.454  53.125  1.00  0.00     0.073 A 
HETATM    4  N1  UNL     1      26.892   0.323  53.576  1.00  0.00    -0.241 NA
HETATM    5  C5  UNL     1      27.806   1.206  53.106  1.00  0.00     0.234 A 
HETATM    6  N2  UNL     1      27.479   2.191  52.220  1.00  0.00    -0.240 NA
HETATM    7  C6  UNL     1      26.209   2.313  51.777  1.00  0.00     0.082 A 
HETATM    8  C15 UNL     1      25.233   1.439  52.221  1.00  0.00     0.025 A 
HETATM    9  C16 UNL     1      23.926   1.532  51.793  1.00  0.00     0.057 A 
HETATM   10  C17 UNL     1      22.990   0.630  52.272  1.00  0.00     0.126 A 
ENDROOT
BRANCH   7  11
HETATM   11  C7  UNL     1      25.876   3.374  50.826  1.00  0.00     0.006 C 
HETATM   12  C8  UNL     1      26.633   3.565  49.761  1.00  0.00     0.001 C 
HETATM   13  C9  UNL     1      26.347   4.557  49.000  1.00  0.00    -0.001 C 
HETATM   14  C10 UNL     1      25.777   5.630  49.477  1.00  0.00    -0.016 C 
HETATM   15  P1  UNL     1      25.855   7.486  49.415  1.00  0.00    -0.093 P 
HETATM   16  C13 UNL     1      24.661   5.345  50.404  1.00  0.00    -0.045 C 
HETATM   17  C11 UNL     1      24.460   7.746  50.655  1.00  0.00     0.041 C 
HETATM   18  H6  UNL     1      25.427   7.950  48.112  1.00  0.00     0.062 HD
HETATM   19  C12 UNL     1      23.675   6.459  50.366  1.00  0.00     0.044 C 
HETATM   20  C14 UNL     1      24.695   4.195  51.103  1.00  0.00     0.022 C 
ENDBRANCH   7  11
BRANCH  10  21
HETATM   21  O2  UNL     1      21.703   0.809  51.778  1.00  0.00    -0.264 OA
BRANCH  21  22
HETATM   22  N3  UNL     1      20.635   1.118  52.614  1.00  0.00    -0.209 NA
HETATM   23  H13 UNL     1      19.955   1.751  52.131  1.00  0.00     0.150 HD
HETATM   24  H14 UNL     1      20.084   0.260  52.873  1.00  0.00     0.150 HD
ENDBRANCH  21  22
ENDBRANCH  10  21
BRANCH   1  25
HETATM   25  O1  UNL     1      22.321  -1.182  53.561  1.00  0.00    -0.353 OA
HETATM   26  C1  UNL     1      22.168  -1.437  54.945  1.00  0.00     0.210 C 
ENDBRANCH   1  25
TORSDOF 4
ENDMDL
MODEL 6
REMARK VINA RESULT:      -6.9      3.325      6.194
REMARK  4 active torsions:
REMARK  status: ('A' for Active; 'I' for Inactive)
REMARK    1  A    between atoms: O1_2  and  C2_3 
REMARK    2  A    between atoms: C6_9  and  C7_10 
REMARK    3  A    between atoms: C17_21  and  O2_22 
REMARK    4  A    between atoms: O2_22  and  N3_23 
ROOT
HETATM    1  C2  UNL     1      21.724   5.601  51.281  1.00  0.00     0.105 A 
HETATM    2  C3  UNL     1      20.536   4.901  51.328  1.00  0.00     0.072 A 
HETATM    3  C4  UNL     1      20.536   3.560  51.669  1.00  0.00     0.073 A 
HETATM    4  N1  UNL     1      19.341   2.921  51.699  1.00  0.00    -0.241 NA
HETATM    5  C5  UNL     1      19.351   1.609  52.035  1.00  0.00     0.234 A 
HETATM    6  N2  UNL     1      20.504   0.943  52.334  1.00  0.00    -0.240 NA
HETATM    7  C6  UNL     1      21.690   1.588  52.301  1.00  0.00     0.082 A 
HETATM    8  C15 UNL     1      21.741   2.929  51.964  1.00  0.00     0.025 A 
HETATM    9  C16 UNL     1      22.932   3.622  51.920  1.00  0.00     0.057 A 
HETATM   10  C17 UNL     1      22.923   4.964  51.577  1.00  0.00     0.126 A 
ENDROOT
BRANCH   7  11
HETATM   11  C7  UNL     1      22.916   0.858  52.623  1.00  0.00     0.006 C 
HETATM   12  C8  UNL     1      22.933   0.012  53.637  1.00  0.00     0.001 C 
HETATM   13  C9  UNL     1      24.052  -0.542  53.929  1.00  0.00    -0.001 C 
HETATM   14  C10 UNL     1      25.186   0.058  53.687  1.00  0.00    -0.016 C 
HETATM   15  P1  UNL     1      26.841   0.431  54.445  1.00  0.00    -0.093 P 
HETATM   16  C13 UNL     1      25.248   0.688  52.351  1.00  0.00    -0.045 C 
HETATM   17  C11 UNL     1      27.466   1.436  52.977  1.00  0.00     0.041 C 
HETATM   18  H6  UNL     1      27.615  -0.787  54.553  1.00  0.00     0.062 HD
HETATM   19  C12 UNL     1      26.659   0.731  51.878  1.00  0.00     0.044 C 
HETATM   20  C14 UNL     1      24.097   1.103  51.791  1.00  0.00     0.022 C 
ENDBRANCH   7  11
BRANCH  10  21
HETATM   21  O2  UNL     1      24.174   5.569  51.562  1.00  0.00    -0.264 OA
BRANCH  21  22
HETATM   22  N3  UNL     1      24.417   6.765  52.231  1.00  0.00    -0.209 NA
HETATM   23  H13 UNL     1      23.521   7.269  52.427  1.00  0.00     0.150 HD
HETATM   24  H14 UNL     1      24.859   6.601  53.171  1.00  0.00     0.150 HD
ENDBRANCH  21  22
ENDBRANCH  10  21
BRANCH   1  25
HETATM   25  O1  UNL     1      21.879   6.943  50.957  1.00  0.00    -0.353 OA
HETATM   26  C1  UNL     1      20.921   7.517  50.086  1.00  0.00     0.210 C 
ENDBRANCH   1  25
TORSDOF 4
ENDMDL
MODEL 7
REMARK VINA RESULT:      -6.8      3.895      5.852
REMARK  4 active torsions:
REMARK  status: ('A' for Active; 'I' for Inactive)
REMARK    1  A    between atoms: O1_2  and  C2_3 
REMARK    2  A    between atoms: C6_9  and  C7_10 
REMARK    3  A    between atoms: C17_21  and  O2_22 
REMARK    4  A    between atoms: O2_22  and  N3_23 
ROOT
HETATM    1  C2  UNL     1      19.142  -0.994  53.401  1.00  0.00     0.105 A 
HETATM    2  C3  UNL     1      20.140  -1.548  54.176  1.00  0.00     0.072 A 
HETATM    3  C4  UNL     1      21.424  -1.034  54.122  1.00  0.00     0.073 A 
HETATM    4  N1  UNL     1      22.365  -1.617  54.904  1.00  0.00    -0.241 NA
HETATM    5  C5  UNL     1      23.618  -1.107  54.845  1.00  0.00     0.234 A 
HETATM    6  N2  UNL     1      23.938  -0.053  54.040  1.00  0.00    -0.240 NA
HETATM    7  C6  UNL     1      22.993   0.522  53.264  1.00  0.00     0.082 A 
HETATM    8  C15 UNL     1      21.695   0.042  53.283  1.00  0.00     0.025 A 
HETATM    9  C16 UNL     1      20.704   0.602  52.506  1.00  0.00     0.057 A 
HETATM   10  C17 UNL     1      19.422   0.081  52.566  1.00  0.00     0.126 A 
ENDROOT
BRANCH   7  11
HETATM   11  C7  UNL     1      23.354   1.651  52.407  1.00  0.00     0.006 C 
HETATM   12  C8  UNL     1      23.739   2.792  52.947  1.00  0.00     0.001 C 
HETATM   13  C9  UNL     1      23.967   3.776  52.156  1.00  0.00    -0.001 C 
HETATM   14  C10 UNL     1      23.341   3.884  51.016  1.00  0.00    -0.016 C 
HETATM   15  P1  UNL     1      22.464   5.113  49.932  1.00  0.00    -0.093 P 
HETATM   16  C13 UNL     1      23.263   2.615  50.261  1.00  0.00    -0.045 C 
HETATM   17  C11 UNL     1      22.010   3.857  48.601  1.00  0.00     0.041 C 
HETATM   18  H6  UNL     1      23.420   6.056  49.391  1.00  0.00     0.062 HD
HETATM   19  C12 UNL     1      23.192   2.898  48.802  1.00  0.00     0.044 C 
HETATM   20  C14 UNL     1      23.269   1.462  50.956  1.00  0.00     0.022 C 
ENDBRANCH   7  11
BRANCH  10  21
HETATM   21  O2  UNL     1      18.497   0.716  51.743  1.00  0.00    -0.264 OA
BRANCH  21  22
HETATM   22  N3  UNL     1      17.837   0.036  50.725  1.00  0.00    -0.209 NA
HETATM   23  H13 UNL     1      16.799   0.124  50.831  1.00  0.00     0.150 HD
HETATM   24  H14 UNL     1      18.057   0.442  49.780  1.00  0.00     0.150 HD
ENDBRANCH  21  22
ENDBRANCH  10  21
BRANCH   1  25
HETATM   25  O1  UNL     1      17.815  -1.401  53.349  1.00  0.00    -0.353 OA
HETATM   26  C1  UNL     1      17.552  -2.784  53.503  1.00  0.00     0.210 C 
ENDBRANCH   1  25
TORSDOF 4
ENDMDL
MODEL 8
REMARK VINA RESULT:      -6.8      6.484      9.274
REMARK  4 active torsions:
REMARK  status: ('A' for Active; 'I' for Inactive)
REMARK    1  A    between atoms: O1_2  and  C2_3 
REMARK    2  A    between atoms: C6_9  and  C7_10 
REMARK    3  A    between atoms: C17_21  and  O2_22 
REMARK    4  A    between atoms: O2_22  and  N3_23 
ROOT
HETATM    1  C2  UNL     1      25.386   5.337  48.962  1.00  0.00     0.105 A 
HETATM    2  C3  UNL     1      25.515   6.563  48.344  1.00  0.00     0.072 A 
HETATM    3  C4  UNL     1      26.769   7.034  47.997  1.00  0.00     0.073 A 
HETATM    4  N1  UNL     1      26.837   8.245  47.391  1.00  0.00    -0.241 NA
HETATM    5  C5  UNL     1      28.068   8.698  47.055  1.00  0.00     0.234 A 
HETATM    6  N2  UNL     1      29.201   7.981  47.305  1.00  0.00    -0.240 NA
HETATM    7  C6  UNL     1      29.123   6.775  47.909  1.00  0.00     0.082 A 
HETATM    8  C15 UNL     1      27.892   6.262  48.276  1.00  0.00     0.025 A 
HETATM    9  C16 UNL     1      27.772   5.035  48.894  1.00  0.00     0.057 A 
HETATM   10  C17 UNL     1      26.513   4.571  49.238  1.00  0.00     0.126 A 
ENDROOT
BRANCH   7  11
HETATM   11  C7  UNL     1      30.349   6.020  48.171  1.00  0.00     0.006 C 
HETATM   12  C8  UNL     1      31.195   6.437  49.094  1.00  0.00     0.001 C 
HETATM   13  C9  UNL     1      32.292   5.786  49.231  1.00  0.00    -0.001 C 
HETATM   14  C10 UNL     1      32.834   5.158  48.223  1.00  0.00    -0.016 C 
HETATM   15  P1  UNL     1      34.464   4.862  47.383  1.00  0.00    -0.093 P 
HETATM   16  C13 UNL     1      31.865   4.384  47.419  1.00  0.00    -0.045 C 
HETATM   17  C11 UNL     1      33.743   3.796  46.005  1.00  0.00     0.041 C 
HETATM   18  H6  UNL     1      35.308   4.043  48.227  1.00  0.00     0.062 HD
HETATM   19  C12 UNL     1      32.548   3.225  46.783  1.00  0.00     0.044 C 
HETATM   20  C14 UNL     1      30.588   4.810  47.380  1.00  0.00     0.022 C 
ENDBRANCH   7  11
BRANCH  10  21
HETATM   21  O2  UNL     1      26.502   3.326  49.856  1.00  0.00    -0.264 OA
BRANCH  21  22
HETATM   22  N3  UNL     1      27.021   3.138  51.133  1.00  0.00    -0.209 NA
HETATM   23  H13 UNL     1      27.830   2.474  51.112  1.00  0.00     0.150 HD
HETATM   24  H14 UNL     1      27.404   4.034  51.532  1.00  0.00     0.150 HD
ENDBRANCH  21  22
ENDBRANCH  10  21
BRANCH   1  25
HETATM   25  O1  UNL     1      24.201   4.737  49.368  1.00  0.00    -0.353 OA
HETATM   26  C1  UNL     1      23.476   5.365  50.409  1.00  0.00     0.210 C 
ENDBRANCH   1  25
TORSDOF 4
ENDMDL
MODEL 9
REMARK VINA RESULT:      -6.7      6.260      8.467
REMARK  4 active torsions:
REMARK  status: ('A' for Active; 'I' for Inactive)
REMARK    1  A    between atoms: O1_2  and  C2_3 
REMARK    2  A    between atoms: C6_9  and  C7_10 
REMARK    3  A    between atoms: C17_21  and  O2_22 
REMARK    4  A    between atoms: O2_22  and  N3_23 
ROOT
HETATM    1  C2  UNL     1      32.343   6.926  47.865  1.00  0.00     0.105 A 
HETATM    2  C3  UNL     1      31.725   7.679  46.888  1.00  0.00     0.072 A 
HETATM    3  C4  UNL     1      30.343   7.719  46.817  1.00  0.00     0.073 A 
HETATM    4  N1  UNL     1      29.789   8.474  45.837  1.00  0.00    -0.241 NA
HETATM    5  C5  UNL     1      28.436   8.508  45.776  1.00  0.00     0.234 A 
HETATM    6  N2  UNL     1      27.650   7.819  46.653  1.00  0.00    -0.240 NA
HETATM    7  C6  UNL     1      28.212   7.070  47.626  1.00  0.00     0.082 A 
HETATM    8  C15 UNL     1      29.589   6.997  47.737  1.00  0.00     0.025 A 
HETATM    9  C16 UNL     1      30.200   6.243  48.717  1.00  0.00     0.057 A 
HETATM   10  C17 UNL     1      31.582   6.208  48.781  1.00  0.00     0.126 A 
ENDROOT
BRANCH   7  11
HETATM   11  C7  UNL     1      27.354   6.338  48.558  1.00  0.00     0.006 C 
HETATM   12  C8  UNL     1      27.380   5.018  48.579  1.00  0.00     0.001 C 
HETATM   13  C9  UNL     1      26.552   4.420  49.356  1.00  0.00    -0.001 C 
HETATM   14  C10 UNL     1      25.402   4.959  49.658  1.00  0.00    -0.016 C 
HETATM   15  P1  UNL     1      23.595   4.562  49.830  1.00  0.00    -0.093 P 
HETATM   16  C13 UNL     1      25.492   6.395  49.997  1.00  0.00    -0.045 C 
HETATM   17  C11 UNL     1      23.086   6.323  50.274  1.00  0.00     0.041 C 
HETATM   18  H6  UNL     1      23.389   3.704  50.978  1.00  0.00     0.062 HD
HETATM   19  C12 UNL     1      24.399   6.762  50.938  1.00  0.00     0.044 C 
HETATM   20  C14 UNL     1      26.485   7.117  49.444  1.00  0.00     0.022 C 
ENDBRANCH   7  11
BRANCH  10  21
HETATM   21  O2  UNL     1      32.097   5.419  49.803  1.00  0.00    -0.264 OA
BRANCH  21  22
HETATM   22  N3  UNL     1      31.544   5.424  51.080  1.00  0.00    -0.209 NA
HETATM   23  H13 UNL     1      31.952   4.657  51.665  1.00  0.00     0.150 HD
HETATM   24  H14 UNL     1      31.763   6.315  51.595  1.00  0.00     0.150 HD
ENDBRANCH  21  22
ENDBRANCH  10  21
BRANCH   1  25
HETATM   25  O1  UNL     1      33.712   6.789  48.059  1.00  0.00    -0.353 OA
HETATM   26  C1  UNL     1      34.455   7.969  48.305  1.00  0.00     0.210 C 
ENDBRANCH   1  25
TORSDOF 4
ENDMDL
