MODEL 1
REMARK VINA RESULT:      -8.7      0.000      0.000
REMARK  7 active torsions:
REMARK  status: ('A' for Active; 'I' for Inactive)
REMARK    1  A    between atoms: O1_2  and  C2_3 
REMARK    2  A    between atoms: C3_4  and  C4_5 
REMARK    3  A    between atoms: C4_5  and  O2_6 
REMARK    4  A    between atoms: O2_6  and  C5_7 
REMARK    5  A    between atoms: C5_7  and  C6_8 
REMARK       I    between atoms: N1_11  and  C9_12 
REMARK    6  A    between atoms: C15_21  and  N4_22 
REMARK    7  A    between atoms: N4_22  and  C16_23 
ROOT
HETATM    1  C4  UNL     1      21.873   1.179  52.775  1.00  0.00     0.082 C 
HETATM    2  C12 UNL     1      21.020   2.044  52.265  1.00  0.00     0.041 A 
HETATM    3  C13 UNL     1      19.646   1.561  51.902  1.00  0.00     0.195 A 
HETATM    4  N2  UNL     1      18.884   2.637  51.347  1.00  0.00    -0.278 NA
HETATM    5  C14 UNL     1      19.247   3.847  51.165  1.00  0.00     0.229 A 
HETATM    6  N3  UNL     1      20.546   4.327  51.509  1.00  0.00    -0.224 NA
HETATM    7  C15 UNL     1      21.363   3.458  52.026  1.00  0.00     0.140 A 
ENDROOT
BRANCH   1   8
HETATM    8  C3  UNL     1      21.294  -0.161  52.896  1.00  0.00     0.061 C 
HETATM    9  C2  UNL     1      21.432  -0.898  53.990  1.00  0.00     0.137 C 
BRANCH   9  10
HETATM   10  O1  UNL     1      21.869  -1.184  55.274  1.00  0.00    -0.368 OA
HETATM   11  C1  UNL     1      23.248  -1.409  55.488  1.00  0.00     0.208 C 
ENDBRANCH   9  10
ENDBRANCH   1   8
BRANCH   1  12
HETATM   12  O2  UNL     1      23.159   1.251  53.209  1.00  0.00    -0.350 OA
BRANCH  12  13
HETATM   13  C5  UNL     1      24.189   0.649  52.418  1.00  0.00     0.182 C 
BRANCH  13  14
HETATM   14  C6  UNL     1      25.517   0.603  53.076  1.00  0.00     0.030 C 
HETATM   15  C7  UNL     1      26.493   1.605  52.443  1.00  0.00     0.028 C 
HETATM   16  C8  UNL     1      27.770   1.212  53.167  1.00  0.00     0.126 C 
HETATM   17  N1  UNL     1      27.677  -0.246  53.152  1.00  0.00    -0.352 N 
HETATM   18  C9  UNL     1      28.678  -1.273  53.312  1.00  0.00     0.215 C 
HETATM   19  C11 UNL     1      26.289  -0.663  52.930  1.00  0.00     0.132 C 
HETATM   20  C10 UNL     1      30.104  -0.884  53.539  1.00  0.00     0.117 C 
HETATM   21  O3  UNL     1      28.490  -2.506  53.282  1.00  0.00    -0.274 OA
ENDBRANCH  13  14
ENDBRANCH  12  13
ENDBRANCH   1  12
BRANCH   7  22
HETATM   22  N4  UNL     1      22.683   3.934  52.376  1.00  0.00    -0.344 N 
HETATM   23  H21 UNL     1      22.871   3.951  53.424  1.00  0.00     0.167 HD
BRANCH  22  24
HETATM   24  C16 UNL     1      23.500   4.295  51.239  1.00  0.00     0.014 C 
HETATM   25  C17 UNL     1      23.952   5.528  51.393  1.00  0.00     0.025 C 
HETATM   26  C18 UNL     1      24.820   6.317  50.493  1.00  0.00     0.005 C 
HETATM   27  C19 UNL     1      25.697   5.834  49.596  1.00  0.00     0.042 C 
HETATM   28  C20 UNL     1      25.976   4.406  49.323  1.00  0.00     0.113 C 
HETATM   29  F1  UNL     1      27.197   4.120  48.800  1.00  0.00    -0.206 F 
HETATM   30  C21 UNL     1      25.111   3.433  49.559  1.00  0.00     0.021 C 
HETATM   31  C22 UNL     1      23.742   3.342  50.099  1.00  0.00     0.087 C 
ENDBRANCH  22  24
ENDBRANCH   7  22
TORSDOF 7
ENDMDL
MODEL 2
REMARK VINA RESULT:      -8.6      3.096      6.553
REMARK  7 active torsions:
REMARK  status: ('A' for Active; 'I' for Inactive)
REMARK    1  A    between atoms: O1_2  and  C2_3 
REMARK    2  A    between atoms: C3_4  and  C4_5 
REMARK    3  A    between atoms: C4_5  and  O2_6 
REMARK    4  A    between atoms: O2_6  and  C5_7 
REMARK    5  A    between atoms: C5_7  and  C6_8 
REMARK       I    between atoms: N1_11  and  C9_12 
REMARK    6  A    between atoms: C15_21  and  N4_22 
REMARK    7  A    between atoms: N4_22  and  C16_23 
ROOT
HETATM    1  C4  UNL     1      22.761   0.965  51.573  1.00  0.00     0.082 C 
HETATM    2  C12 UNL     1      22.732   0.235  52.670  1.00  0.00     0.041 A 
HETATM    3  C13 UNL     1      21.426  -0.379  53.083  1.00  0.00     0.195 A 
HETATM    4  N2  UNL     1      21.597  -1.109  54.302  1.00  0.00    -0.278 NA
HETATM    5  C14 UNL     1      22.665  -1.264  54.983  1.00  0.00     0.229 A 
HETATM    6  N3  UNL     1      23.917  -0.694  54.603  1.00  0.00    -0.224 NA
HETATM    7  C15 UNL     1      23.922   0.007  53.509  1.00  0.00     0.140 A 
ENDROOT
BRANCH   1   8
HETATM    8  C3  UNL     1      21.446   1.048  50.932  1.00  0.00     0.061 C 
HETATM    9  C2  UNL     1      21.294   0.993  49.616  1.00  0.00     0.137 C 
BRANCH   9  10
HETATM   10  O1  UNL     1      21.712   0.887  48.298  1.00  0.00    -0.368 OA
HETATM   11  C1  UNL     1      22.316   2.009  47.685  1.00  0.00     0.208 C 
ENDBRANCH   9  10
ENDBRANCH   1   8
BRANCH   1  12
HETATM   12  O2  UNL     1      23.727   1.652  50.910  1.00  0.00    -0.350 OA
BRANCH  12  13
HETATM   13  C5  UNL     1      23.790   3.074  51.061  1.00  0.00     0.182 C 
BRANCH  13  14
HETATM   14  C6  UNL     1      24.642   3.758  50.060  1.00  0.00     0.030 C 
HETATM   15  C7  UNL     1      26.105   3.303  50.161  1.00  0.00     0.028 C 
HETATM   16  C8  UNL     1      26.744   4.273  49.181  1.00  0.00     0.126 C 
HETATM   17  N1  UNL     1      26.055   5.519  49.511  1.00  0.00    -0.352 N 
HETATM   18  C9  UNL     1      26.396   6.899  49.266  1.00  0.00     0.215 C 
HETATM   19  C11 UNL     1      24.801   5.231  50.215  1.00  0.00     0.132 C 
HETATM   20  C10 UNL     1      27.668   7.228  48.551  1.00  0.00     0.117 C 
HETATM   21  O3  UNL     1      25.728   7.900  49.593  1.00  0.00    -0.274 OA
ENDBRANCH  13  14
ENDBRANCH  12  13
ENDBRANCH   1  12
BRANCH   7  22
HETATM   22  N4  UNL     1      25.186   0.591  53.117  1.00  0.00    -0.344 N 
HETATM   23  H21 UNL     1      25.092   1.527  52.616  1.00  0.00     0.167 HD
BRANCH  22  24
HETATM   24  C16 UNL     1      26.339  -0.203  53.478  1.00  0.00     0.014 C 
HETATM   25  C17 UNL     1      26.462  -1.215  52.636  1.00  0.00     0.025 C 
HETATM   26  C18 UNL     1      27.485  -2.281  52.610  1.00  0.00     0.005 C 
HETATM   27  C19 UNL     1      28.731  -2.211  53.107  1.00  0.00     0.042 C 
HETATM   28  C20 UNL     1      29.341  -1.045  53.785  1.00  0.00     0.113 C 
HETATM   29  F1  UNL     1      30.697  -0.967  53.748  1.00  0.00    -0.206 F 
HETATM   30  C21 UNL     1      28.639  -0.110  54.405  1.00  0.00     0.021 C 
HETATM   31  C22 UNL     1      27.210   0.150  54.655  1.00  0.00     0.087 C 
ENDBRANCH  22  24
ENDBRANCH   7  22
TORSDOF 7
ENDMDL
MODEL 3
REMARK VINA RESULT:      -8.4      3.255      6.306
REMARK  7 active torsions:
REMARK  status: ('A' for Active; 'I' for Inactive)
REMARK    1  A    between atoms: O1_2  and  C2_3 
REMARK    2  A    between atoms: C3_4  and  C4_5 
REMARK    3  A    between atoms: C4_5  and  O2_6 
REMARK    4  A    between atoms: O2_6  and  C5_7 
REMARK    5  A    between atoms: C5_7  and  C6_8 
REMARK       I    between atoms: N1_11  and  C9_12 
REMARK    6  A    between atoms: C15_21  and  N4_22 
REMARK    7  A    between atoms: N4_22  and  C16_23 
ROOT
HETATM    1  C4  UNL     1      23.283   2.010  51.680  1.00  0.00     0.082 C 
HETATM    2  C12 UNL     1      23.180   0.955  52.462  1.00  0.00     0.041 A 
HETATM    3  C13 UNL     1      21.936   0.120  52.372  1.00  0.00     0.195 A 
HETATM    4  N2  UNL     1      22.007  -0.958  53.311  1.00  0.00    -0.278 NA
HETATM    5  C14 UNL     1      22.951  -1.233  54.124  1.00  0.00     0.229 A 
HETATM    6  N3  UNL     1      24.144  -0.456  54.218  1.00  0.00    -0.224 NA
HETATM    7  C15 UNL     1      24.228   0.570  53.425  1.00  0.00     0.140 A 
ENDROOT
BRANCH   1   8
HETATM    8  C3  UNL     1      22.103   2.182  50.828  1.00  0.00     0.061 C 
HETATM    9  C2  UNL     1      21.340   3.265  50.883  1.00  0.00     0.137 C 
BRANCH   9  10
HETATM   10  O1  UNL     1      20.947   4.513  51.341  1.00  0.00    -0.368 OA
HETATM   11  C1  UNL     1      21.886   5.570  51.320  1.00  0.00     0.208 C 
ENDBRANCH   9  10
ENDBRANCH   1   8
BRANCH   1  12
HETATM   12  O2  UNL     1      24.229   2.966  51.488  1.00  0.00    -0.350 OA
BRANCH  12  13
HETATM   13  C5  UNL     1      24.924   3.008  50.237  1.00  0.00     0.182 C 
BRANCH  13  14
HETATM   14  C6  UNL     1      25.671   4.265  49.995  1.00  0.00     0.030 C 
HETATM   15  C7  UNL     1      24.923   5.185  49.020  1.00  0.00     0.028 C 
HETATM   16  C8  UNL     1      25.976   6.264  48.825  1.00  0.00     0.126 C 
HETATM   17  N1  UNL     1      27.195   5.466  48.717  1.00  0.00    -0.352 N 
HETATM   18  C9  UNL     1      28.493   5.765  48.162  1.00  0.00     0.215 C 
HETATM   19  C11 UNL     1      26.983   4.137  49.300  1.00  0.00     0.132 C 
HETATM   20  C10 UNL     1      28.744   7.111  47.559  1.00  0.00     0.117 C 
HETATM   21  O3  UNL     1      29.478   5.002  48.120  1.00  0.00    -0.274 OA
ENDBRANCH  13  14
ENDBRANCH  12  13
ENDBRANCH   1  12
BRANCH   7  22
HETATM   22  N4  UNL     1      25.432   1.365  53.515  1.00  0.00    -0.344 N 
HETATM   23  H21 UNL     1      25.259   2.380  53.791  1.00  0.00     0.167 HD
BRANCH  22  24
HETATM   24  C16 UNL     1      26.644   0.637  53.218  1.00  0.00     0.014 C 
HETATM   25  C17 UNL     1      27.647   1.140  53.917  1.00  0.00     0.025 C 
HETATM   26  C18 UNL     1      29.064   0.722  53.940  1.00  0.00     0.005 C 
HETATM   27  C19 UNL     1      29.547  -0.498  53.645  1.00  0.00     0.042 C 
HETATM   28  C20 UNL     1      28.755  -1.678  53.234  1.00  0.00     0.113 C 
HETATM   29  F1  UNL     1      29.312  -2.894  53.479  1.00  0.00    -0.206 F 
HETATM   30  C21 UNL     1      27.566  -1.599  52.657  1.00  0.00     0.021 C 
HETATM   31  C22 UNL     1      26.663  -0.510  52.241  1.00  0.00     0.087 C 
ENDBRANCH  22  24
ENDBRANCH   7  22
TORSDOF 7
ENDMDL
MODEL 4
REMARK VINA RESULT:      -8.1      3.075      6.075
REMARK  7 active torsions:
REMARK  status: ('A' for Active; 'I' for Inactive)
REMARK    1  A    between atoms: O1_2  and  C2_3 
REMARK    2  A    between atoms: C3_4  and  C4_5 
REMARK    3  A    between atoms: C4_5  and  O2_6 
REMARK    4  A    between atoms: O2_6  and  C5_7 
REMARK    5  A    between atoms: C5_7  and  C6_8 
REMARK       I    between atoms: N1_11  and  C9_12 
REMARK    6  A    between atoms: C15_21  and  N4_22 
REMARK    7  A    between atoms: N4_22  and  C16_23 
ROOT
HETATM    1  C4  UNL     1      22.468   1.006  52.993  1.00  0.00     0.082 C 
HETATM    2  C12 UNL     1      22.942   0.118  53.843  1.00  0.00     0.041 A 
HETATM    3  C13 UNL     1      21.968  -0.753  54.581  1.00  0.00     0.195 A 
HETATM    4  N2  UNL     1      22.674  -1.627  55.467  1.00  0.00    -0.278 NA
HETATM    5  C14 UNL     1      23.933  -1.714  55.649  1.00  0.00     0.229 A 
HETATM    6  N3  UNL     1      24.876  -0.900  54.952  1.00  0.00    -0.224 NA
HETATM    7  C15 UNL     1      24.383  -0.044  54.107  1.00  0.00     0.140 A 
ENDROOT
BRANCH   1   8
HETATM    8  C3  UNL     1      21.005   0.977  52.925  1.00  0.00     0.061 C 
HETATM    9  C2  UNL     1      20.351   0.762  51.791  1.00  0.00     0.137 C 
BRANCH   9  10
HETATM   10  O1  UNL     1      20.223   0.512  50.434  1.00  0.00    -0.368 OA
HETATM   11  C1  UNL     1      21.142   1.111  49.543  1.00  0.00     0.208 C 
ENDBRANCH   9  10
ENDBRANCH   1   8
BRANCH   1  12
HETATM   12  O2  UNL     1      23.027   1.934  52.172  1.00  0.00    -0.350 OA
BRANCH  12  13
HETATM   13  C5  UNL     1      22.831   3.321  52.465  1.00  0.00     0.182 C 
BRANCH  13  14
HETATM   14  C6  UNL     1      23.852   4.220  51.876  1.00  0.00     0.030 C 
HETATM   15  C7  UNL     1      23.229   5.191  50.863  1.00  0.00     0.028 C 
HETATM   16  C8  UNL     1      24.492   5.829  50.308  1.00  0.00     0.126 C 
HETATM   17  N1  UNL     1      25.372   4.670  50.177  1.00  0.00    -0.352 N 
HETATM   18  C9  UNL     1      26.560   4.451  49.388  1.00  0.00     0.215 C 
HETATM   19  C11 UNL     1      24.898   3.576  51.032  1.00  0.00     0.132 C 
HETATM   20  C10 UNL     1      27.070   5.544  48.505  1.00  0.00     0.117 C 
HETATM   21  O3  UNL     1      27.245   3.409  49.350  1.00  0.00    -0.274 OA
ENDBRANCH  13  14
ENDBRANCH  12  13
ENDBRANCH   1  12
BRANCH   7  22
HETATM   22  N4  UNL     1      25.330   0.787  53.398  1.00  0.00    -0.344 N 
HETATM   23  H21 UNL     1      24.962   1.761  53.169  1.00  0.00     0.167 HD
BRANCH  22  24
HETATM   24  C16 UNL     1      26.597   0.145  53.133  1.00  0.00     0.014 C 
HETATM   25  C17 UNL     1      27.564   0.800  53.752  1.00  0.00     0.025 C 
HETATM   26  C18 UNL     1      29.014   0.514  53.773  1.00  0.00     0.005 C 
HETATM   27  C19 UNL     1      29.600  -0.679  53.578  1.00  0.00     0.042 C 
HETATM   28  C20 UNL     1      28.911  -1.960  53.302  1.00  0.00     0.113 C 
HETATM   29  F1  UNL     1      29.584  -3.092  53.642  1.00  0.00    -0.206 F 
HETATM   30  C21 UNL     1      27.709  -2.042  52.756  1.00  0.00     0.021 C 
HETATM   31  C22 UNL     1      26.701  -1.083  52.267  1.00  0.00     0.087 C 
ENDBRANCH  22  24
ENDBRANCH   7  22
TORSDOF 7
ENDMDL
MODEL 5
REMARK VINA RESULT:      -8.1      1.021      1.210
REMARK  7 active torsions:
REMARK  status: ('A' for Active; 'I' for Inactive)
REMARK    1  A    between atoms: O1_2  and  C2_3 
REMARK    2  A    between atoms: C3_4  and  C4_5 
REMARK    3  A    between atoms: C4_5  and  O2_6 
REMARK    4  A    between atoms: O2_6  and  C5_7 
REMARK    5  A    between atoms: C5_7  and  C6_8 
REMARK       I    between atoms: N1_11  and  C9_12 
REMARK    6  A    between atoms: C15_21  and  N4_22 
REMARK    7  A    between atoms: N4_22  and  C16_23 
ROOT
HETATM    1  C4  UNL     1      22.431   2.256  52.222  1.00  0.00     0.082 C 
HETATM    2  C12 UNL     1      21.693   3.184  51.648  1.00  0.00     0.041 A 
HETATM    3  C13 UNL     1      20.285   2.838  51.261  1.00  0.00     0.195 A 
HETATM    4  N2  UNL     1      19.663   3.965  50.636  1.00  0.00    -0.278 NA
HETATM    5  C14 UNL     1      20.163   5.118  50.414  1.00  0.00     0.229 A 
HETATM    6  N3  UNL     1      21.498   5.469  50.781  1.00  0.00    -0.224 NA
HETATM    7  C15 UNL     1      22.198   4.540  51.361  1.00  0.00     0.140 A 
ENDROOT
BRANCH   1   8
HETATM    8  C3  UNL     1      21.703   0.995  52.382  1.00  0.00     0.061 C 
HETATM    9  C2  UNL     1      21.886   0.196  53.424  1.00  0.00     0.137 C 
BRANCH   9  10
HETATM   10  O1  UNL     1      22.444  -0.202  54.629  1.00  0.00    -0.368 OA
HETATM   11  C1  UNL     1      22.260  -1.537  55.055  1.00  0.00     0.208 C 
ENDBRANCH   9  10
ENDBRANCH   1   8
BRANCH   1  12
HETATM   12  O2  UNL     1      23.703   2.206  52.696  1.00  0.00    -0.350 OA
BRANCH  12  13
HETATM   13  C5  UNL     1      24.660   1.384  52.019  1.00  0.00     0.182 C 
BRANCH  13  14
HETATM   14  C6  UNL     1      25.883   1.094  52.805  1.00  0.00     0.030 C 
HETATM   15  C7  UNL     1      27.072   1.939  52.326  1.00  0.00     0.028 C 
HETATM   16  C8  UNL     1      28.182   1.313  53.156  1.00  0.00     0.126 C 
HETATM   17  N1  UNL     1      27.854  -0.108  53.058  1.00  0.00    -0.352 N 
HETATM   18  C9  UNL     1      28.650  -1.293  53.267  1.00  0.00     0.215 C 
HETATM   19  C11 UNL     1      26.449  -0.278  52.675  1.00  0.00     0.132 C 
HETATM   20  C10 UNL     1      30.087  -1.156  53.658  1.00  0.00     0.117 C 
HETATM   21  O3  UNL     1      28.268  -2.475  53.156  1.00  0.00    -0.274 OA
ENDBRANCH  13  14
ENDBRANCH  12  13
ENDBRANCH   1  12
BRANCH   7  22
HETATM   22  N4  UNL     1      23.552   4.884  51.734  1.00  0.00    -0.344 N 
HETATM   23  H21 UNL     1      23.705   4.952  52.786  1.00  0.00     0.167 HD
BRANCH  22  24
HETATM   24  C16 UNL     1      24.443   5.069  50.611  1.00  0.00     0.014 C 
HETATM   25  C17 UNL     1      24.875   6.319  50.590  1.00  0.00     0.025 C 
HETATM   26  C18 UNL     1      25.798   6.966  49.634  1.00  0.00     0.005 C 
HETATM   27  C19 UNL     1      26.738   6.359  48.890  1.00  0.00     0.042 C 
HETATM   28  C20 UNL     1      27.046   4.911  48.875  1.00  0.00     0.113 C 
HETATM   29  F1  UNL     1      28.303   4.566  48.490  1.00  0.00    -0.206 F 
HETATM   30  C21 UNL     1      26.174   3.974  49.209  1.00  0.00     0.021 C 
HETATM   31  C22 UNL     1      24.771   3.947  49.662  1.00  0.00     0.087 C 
ENDBRANCH  22  24
ENDBRANCH   7  22
TORSDOF 7
ENDMDL
MODEL 6
REMARK VINA RESULT:      -8.0      3.583      6.997
REMARK  7 active torsions:
REMARK  status: ('A' for Active; 'I' for Inactive)
REMARK    1  A    between atoms: O1_2  and  C2_3 
REMARK    2  A    between atoms: C3_4  and  C4_5 
REMARK    3  A    between atoms: C4_5  and  O2_6 
REMARK    4  A    between atoms: O2_6  and  C5_7 
REMARK    5  A    between atoms: C5_7  and  C6_8 
REMARK       I    between atoms: N1_11  and  C9_12 
REMARK    6  A    between atoms: C15_21  and  N4_22 
REMARK    7  A    between atoms: N4_22  and  C16_23 
ROOT
HETATM    1  C4  UNL     1      24.249   3.332  50.311  1.00  0.00     0.082 C 
HETATM    2  C12 UNL     1      23.716   2.389  51.062  1.00  0.00     0.041 A 
HETATM    3  C13 UNL     1      22.481   1.696  50.566  1.00  0.00     0.195 A 
HETATM    4  N2  UNL     1      22.048   0.730  51.528  1.00  0.00    -0.278 NA
HETATM    5  C14 UNL     1      22.582   0.442  52.651  1.00  0.00     0.229 A 
HETATM    6  N3  UNL     1      23.761   1.085  53.136  1.00  0.00    -0.224 NA
HETATM    7  C15 UNL     1      24.275   1.999  52.369  1.00  0.00     0.140 A 
ENDROOT
BRANCH   1   8
HETATM    8  C3  UNL     1      23.497   3.540  49.071  1.00  0.00     0.061 C 
HETATM    9  C2  UNL     1      23.144   4.746  48.648  1.00  0.00     0.137 C 
BRANCH   9  10
HETATM   10  O1  UNL     1      23.059   6.128  48.700  1.00  0.00    -0.368 OA
HETATM   11  C1  UNL     1      22.413   6.728  49.805  1.00  0.00     0.208 C 
ENDBRANCH   9  10
ENDBRANCH   1   8
BRANCH   1  12
HETATM   12  O2  UNL     1      25.329   4.147  50.428  1.00  0.00    -0.350 OA
BRANCH  12  13
HETATM   13  C5  UNL     1      26.448   3.938  49.559  1.00  0.00     0.182 C 
BRANCH  13  14
HETATM   14  C6  UNL     1      26.817   5.120  48.743  1.00  0.00     0.030 C 
HETATM   15  C7  UNL     1      28.336   5.212  48.542  1.00  0.00     0.028 C 
HETATM   16  C8  UNL     1      28.423   6.568  47.860  1.00  0.00     0.126 C 
HETATM   17  N1  UNL     1      27.463   7.348  48.637  1.00  0.00    -0.352 N 
HETATM   18  C9  UNL     1      27.298   8.772  48.808  1.00  0.00     0.215 C 
HETATM   19  C11 UNL     1      26.536   6.456  49.340  1.00  0.00     0.132 C 
HETATM   20  C10 UNL     1      28.225   9.711  48.106  1.00  0.00     0.117 C 
HETATM   21  O3  UNL     1      26.433   9.342  49.504  1.00  0.00    -0.274 OA
ENDBRANCH  13  14
ENDBRANCH  12  13
ENDBRANCH   1  12
BRANCH   7  22
HETATM   22  N4  UNL     1      25.468   2.658  52.853  1.00  0.00    -0.344 N 
HETATM   23  H21 UNL     1      25.304   3.658  53.182  1.00  0.00     0.167 HD
BRANCH  22  24
HETATM   24  C16 UNL     1      26.657   1.838  52.803  1.00  0.00     0.014 C 
HETATM   25  C17 UNL     1      27.581   2.348  53.599  1.00  0.00     0.025 C 
HETATM   26  C18 UNL     1      28.948   1.855  53.869  1.00  0.00     0.005 C 
HETATM   27  C19 UNL     1      29.382   0.588  53.754  1.00  0.00     0.042 C 
HETATM   28  C20 UNL     1      28.578  -0.580  53.331  1.00  0.00     0.113 C 
HETATM   29  F1  UNL     1      29.009  -1.796  53.759  1.00  0.00    -0.206 F 
HETATM   30  C21 UNL     1      27.493  -0.489  52.579  1.00  0.00     0.021 C 
HETATM   31  C22 UNL     1      26.736   0.605  51.942  1.00  0.00     0.087 C 
ENDBRANCH  22  24
ENDBRANCH   7  22
TORSDOF 7
ENDMDL
MODEL 7
REMARK VINA RESULT:      -7.9      2.865      5.067
REMARK  7 active torsions:
REMARK  status: ('A' for Active; 'I' for Inactive)
REMARK    1  A    between atoms: O1_2  and  C2_3 
REMARK    2  A    between atoms: C3_4  and  C4_5 
REMARK    3  A    between atoms: C4_5  and  O2_6 
REMARK    4  A    between atoms: O2_6  and  C5_7 
REMARK    5  A    between atoms: C5_7  and  C6_8 
REMARK       I    between atoms: N1_11  and  C9_12 
REMARK    6  A    between atoms: C15_21  and  N4_22 
REMARK    7  A    between atoms: N4_22  and  C16_23 
ROOT
HETATM    1  C4  UNL     1      23.736   0.761  53.275  1.00  0.00     0.082 C 
HETATM    2  C12 UNL     1      22.570   0.172  53.446  1.00  0.00     0.041 A 
HETATM    3  C13 UNL     1      22.547  -1.208  54.035  1.00  0.00     0.195 A 
HETATM    4  N2  UNL     1      21.198  -1.678  54.117  1.00  0.00    -0.278 NA
HETATM    5  C14 UNL     1      20.130  -1.071  53.770  1.00  0.00     0.229 A 
HETATM    6  N3  UNL     1      20.131   0.244  53.215  1.00  0.00    -0.224 NA
HETATM    7  C15 UNL     1      21.293   0.808  53.072  1.00  0.00     0.140 A 
ENDROOT
BRANCH   1   8
HETATM    8  C3  UNL     1      24.849  -0.086  53.711  1.00  0.00     0.061 C 
HETATM    9  C2  UNL     1      25.990   0.418  54.161  1.00  0.00     0.137 C 
BRANCH   9  10
HETATM   10  O1  UNL     1      26.877   1.424  54.512  1.00  0.00    -0.368 OA
HETATM   11  C1  UNL     1      27.904   1.771  53.605  1.00  0.00     0.208 C 
ENDBRANCH   9  10
ENDBRANCH   1   8
BRANCH   1  12
HETATM   12  O2  UNL     1      24.135   1.965  52.789  1.00  0.00    -0.350 OA
BRANCH  12  13
HETATM   13  C5  UNL     1      24.717   2.024  51.483  1.00  0.00     0.182 C 
BRANCH  13  14
HETATM   14  C6  UNL     1      25.216   3.365  51.096  1.00  0.00     0.030 C 
HETATM   15  C7  UNL     1      24.159   4.153  50.309  1.00  0.00     0.028 C 
HETATM   16  C8  UNL     1      24.989   5.360  49.902  1.00  0.00     0.126 C 
HETATM   17  N1  UNL     1      26.256   4.732  49.532  1.00  0.00    -0.352 N 
HETATM   18  C9  UNL     1      27.353   5.192  48.715  1.00  0.00     0.215 C 
HETATM   19  C11 UNL     1      26.356   3.400  50.137  1.00  0.00     0.132 C 
HETATM   20  C10 UNL     1      27.284   6.546  48.082  1.00  0.00     0.117 C 
HETATM   21  O3  UNL     1      28.402   4.569  48.460  1.00  0.00    -0.274 OA
ENDBRANCH  13  14
ENDBRANCH  12  13
ENDBRANCH   1  12
BRANCH   7  22
HETATM   22  N4  UNL     1      21.305   2.139  52.508  1.00  0.00    -0.344 N 
HETATM   23  H21 UNL     1      21.512   2.907  53.218  1.00  0.00     0.167 HD
BRANCH  22  24
HETATM   24  C16 UNL     1      21.035   2.180  51.089  1.00  0.00     0.014 C 
HETATM   25  C17 UNL     1      20.468   3.333  50.778  1.00  0.00     0.025 C 
HETATM   26  C18 UNL     1      20.019   3.821  49.457  1.00  0.00     0.005 C 
HETATM   27  C19 UNL     1      20.487   3.437  48.257  1.00  0.00     0.042 C 
HETATM   28  C20 UNL     1      21.554   2.442  48.010  1.00  0.00     0.113 C 
HETATM   29  F1  UNL     1      22.230   2.561  46.837  1.00  0.00    -0.206 F 
HETATM   30  C21 UNL     1      21.865   1.474  48.858  1.00  0.00     0.021 C 
HETATM   31  C22 UNL     1      21.384   1.031  50.180  1.00  0.00     0.087 C 
ENDBRANCH  22  24
ENDBRANCH   7  22
TORSDOF 7
ENDMDL
MODEL 8
REMARK VINA RESULT:      -7.9      2.301      3.270
REMARK  7 active torsions:
REMARK  status: ('A' for Active; 'I' for Inactive)
REMARK    1  A    between atoms: O1_2  and  C2_3 
REMARK    2  A    between atoms: C3_4  and  C4_5 
REMARK    3  A    between atoms: C4_5  and  O2_6 
REMARK    4  A    between atoms: O2_6  and  C5_7 
REMARK    5  A    between atoms: C5_7  and  C6_8 
REMARK       I    between atoms: N1_11  and  C9_12 
REMARK    6  A    between atoms: C15_21  and  N4_22 
REMARK    7  A    between atoms: N4_22  and  C16_23 
ROOT
HETATM    1  C4  UNL     1      22.988   3.832  51.823  1.00  0.00     0.082 C 
HETATM    2  C12 UNL     1      22.425   4.899  51.293  1.00  0.00     0.041 A 
HETATM    3  C13 UNL     1      20.962   4.843  50.962  1.00  0.00     0.195 A 
HETATM    4  N2  UNL     1      20.549   6.082  50.379  1.00  0.00    -0.278 NA
HETATM    5  C14 UNL     1      21.256   7.120  50.151  1.00  0.00     0.229 A 
HETATM    6  N3  UNL     1      22.646   7.195  50.466  1.00  0.00    -0.224 NA
HETATM    7  C15 UNL     1      23.173   6.136  51.002  1.00  0.00     0.140 A 
ENDROOT
BRANCH   1   8
HETATM    8  C3  UNL     1      22.034   2.734  51.996  1.00  0.00     0.061 C 
HETATM    9  C2  UNL     1      21.860   1.794  51.077  1.00  0.00     0.137 C 
BRANCH   9  10
HETATM   10  O1  UNL     1      22.085   1.147  49.872  1.00  0.00    -0.368 OA
HETATM   11  C1  UNL     1      22.172   1.920  48.692  1.00  0.00     0.208 C 
ENDBRANCH   9  10
ENDBRANCH   1   8
BRANCH   1  12
HETATM   12  O2  UNL     1      24.244   3.525  52.240  1.00  0.00    -0.350 OA
BRANCH  12  13
HETATM   13  C5  UNL     1      24.431   2.385  53.085  1.00  0.00     0.182 C 
BRANCH  13  14
HETATM   14  C6  UNL     1      25.568   1.516  52.698  1.00  0.00     0.030 C 
HETATM   15  C7  UNL     1      25.252   0.034  52.942  1.00  0.00     0.028 C 
HETATM   16  C8  UNL     1      26.614  -0.571  52.644  1.00  0.00     0.126 C 
HETATM   17  N1  UNL     1      27.508   0.386  53.293  1.00  0.00    -0.352 N 
HETATM   18  C9  UNL     1      28.875   0.272  53.739  1.00  0.00     0.215 C 
HETATM   19  C11 UNL     1      26.820   1.666  53.491  1.00  0.00     0.132 C 
HETATM   20  C10 UNL     1      29.607  -1.019  53.553  1.00  0.00     0.117 C 
HETATM   21  O3  UNL     1      29.555   1.162  54.289  1.00  0.00    -0.274 OA
ENDBRANCH  13  14
ENDBRANCH  12  13
ENDBRANCH   1  12
BRANCH   7  22
HETATM   22  N4  UNL     1      24.582   6.201  51.322  1.00  0.00    -0.344 N 
HETATM   23  H21 UNL     1      24.784   6.299  52.363  1.00  0.00     0.167 HD
BRANCH  22  24
HETATM   24  C16 UNL     1      25.452   6.120  50.170  1.00  0.00     0.014 C 
HETATM   25  C17 UNL     1      26.048   7.285  49.982  1.00  0.00     0.025 C 
HETATM   26  C18 UNL     1      27.018   7.673  48.936  1.00  0.00     0.005 C 
HETATM   27  C19 UNL     1      27.841   6.854  48.260  1.00  0.00     0.042 C 
HETATM   28  C20 UNL     1      27.948   5.387  48.425  1.00  0.00     0.113 C 
HETATM   29  F1  UNL     1      29.133   4.824  48.067  1.00  0.00    -0.206 F 
HETATM   30  C21 UNL     1      26.969   4.628  48.891  1.00  0.00     0.021 C 
HETATM   31  C22 UNL     1      25.591   4.853  49.367  1.00  0.00     0.087 C 
ENDBRANCH  22  24
ENDBRANCH   7  22
TORSDOF 7
ENDMDL
MODEL 9
REMARK VINA RESULT:      -7.8      2.902      6.454
REMARK  7 active torsions:
REMARK  status: ('A' for Active; 'I' for Inactive)
REMARK    1  A    between atoms: O1_2  and  C2_3 
REMARK    2  A    between atoms: C3_4  and  C4_5 
REMARK    3  A    between atoms: C4_5  and  O2_6 
REMARK    4  A    between atoms: O2_6  and  C5_7 
REMARK    5  A    between atoms: C5_7  and  C6_8 
REMARK       I    between atoms: N1_11  and  C9_12 
REMARK    6  A    between atoms: C15_21  and  N4_22 
REMARK    7  A    between atoms: N4_22  and  C16_23 
ROOT
HETATM    1  C4  UNL     1      21.608   0.884  52.895  1.00  0.00     0.082 C 
HETATM    2  C12 UNL     1      22.334   0.114  53.681  1.00  0.00     0.041 A 
HETATM    3  C13 UNL     1      21.633  -0.699  54.729  1.00  0.00     0.195 A 
HETATM    4  N2  UNL     1      22.591  -1.443  55.487  1.00  0.00    -0.278 NA
HETATM    5  C14 UNL     1      23.859  -1.468  55.347  1.00  0.00     0.229 A 
HETATM    6  N3  UNL     1      24.544  -0.707  54.352  1.00  0.00    -0.224 NA
HETATM    7  C15 UNL     1      23.803   0.031  53.580  1.00  0.00     0.140 A 
ENDROOT
BRANCH   1   8
HETATM    8  C3  UNL     1      20.180   0.799  53.209  1.00  0.00     0.061 C 
HETATM    9  C2  UNL     1      19.286   0.360  52.334  1.00  0.00     0.137 C 
BRANCH   9  10
HETATM   10  O1  UNL     1      18.847  -0.140  51.118  1.00  0.00    -0.368 OA
HETATM   11  C1  UNL     1      17.459  -0.150  50.849  1.00  0.00     0.208 C 
ENDBRANCH   9  10
ENDBRANCH   1   8
BRANCH   1  12
HETATM   12  O2  UNL     1      21.884   1.730  51.869  1.00  0.00    -0.350 OA
BRANCH  12  13
HETATM   13  C5  UNL     1      21.562   3.118  52.013  1.00  0.00     0.182 C 
BRANCH  13  14
HETATM   14  C6  UNL     1      22.401   4.028  51.197  1.00  0.00     0.030 C 
HETATM   15  C7  UNL     1      23.779   4.248  51.838  1.00  0.00     0.028 C 
HETATM   16  C8  UNL     1      24.321   5.327  50.915  1.00  0.00     0.126 C 
HETATM   17  N1  UNL     1      23.147   6.179  50.739  1.00  0.00    -0.352 N 
HETATM   18  C9  UNL     1      23.011   7.552  50.316  1.00  0.00     0.215 C 
HETATM   19  C11 UNL     1      21.927   5.435  51.070  1.00  0.00     0.132 C 
HETATM   20  C10 UNL     1      24.234   8.342  49.971  1.00  0.00     0.117 C 
HETATM   21  O3  UNL     1      21.947   8.193  50.199  1.00  0.00    -0.274 OA
ENDBRANCH  13  14
ENDBRANCH  12  13
ENDBRANCH   1  12
BRANCH   7  22
HETATM   22  N4  UNL     1      24.488   0.807  52.571  1.00  0.00    -0.344 N 
HETATM   23  H21 UNL     1      23.834   1.317  51.901  1.00  0.00     0.167 HD
BRANCH  22  24
HETATM   24  C16 UNL     1      25.929   0.750  52.660  1.00  0.00     0.014 C 
HETATM   25  C17 UNL     1      26.381   1.845  53.245  1.00  0.00     0.025 C 
HETATM   26  C18 UNL     1      27.776   2.226  53.551  1.00  0.00     0.005 C 
HETATM   27  C19 UNL     1      28.815   1.393  53.734  1.00  0.00     0.042 C 
HETATM   28  C20 UNL     1      28.776  -0.085  53.667  1.00  0.00     0.113 C 
HETATM   29  F1  UNL     1      29.740  -0.746  54.361  1.00  0.00    -0.206 F 
HETATM   30  C21 UNL     1      27.871  -0.763  52.980  1.00  0.00     0.021 C 
HETATM   31  C22 UNL     1      26.712  -0.424  52.133  1.00  0.00     0.087 C 
ENDBRANCH  22  24
ENDBRANCH   7  22
TORSDOF 7
ENDMDL
