MODEL 1
REMARK VINA RESULT:      -8.7      0.000      0.000
REMARK  6 active torsions:
REMARK  status: ('A' for Active; 'I' for Inactive)
REMARK    1  A    between atoms: O1_2  and  C2_3 
REMARK    2  A    between atoms: C6_9  and  N3_10 
REMARK    3  A    between atoms: N3_10  and  P1_11 
REMARK    4  A    between atoms: C14_21  and  O2_22 
REMARK    5  A    between atoms: O2_22  and  C15_23 
REMARK    6  A    between atoms: N4_26  and  O3_27 
ROOT
HETATM    1  C2  UNL     1      22.874  -0.016  53.392  1.00  0.00     0.103 A 
HETATM    2  C3  UNL     1      21.697   0.688  53.249  1.00  0.00     0.072 A 
HETATM    3  C4  UNL     1      21.671   1.942  52.663  1.00  0.00     0.075 A 
HETATM    4  N1  UNL     1      20.573   2.697  52.485  1.00  0.00    -0.241 NA
HETATM    5  C5  UNL     1      20.658   3.913  51.900  1.00  0.00     0.236 A 
HETATM    6  N2  UNL     1      21.847   4.382  51.489  1.00  0.00    -0.222 NA
HETATM    7  C6  UNL     1      23.010   3.688  51.628  1.00  0.00     0.162 A 
HETATM    8  C12 UNL     1      22.881   2.438  52.238  1.00  0.00     0.043 A 
HETATM    9  C13 UNL     1      24.053   1.738  52.378  1.00  0.00     0.057 A 
HETATM   10  C14 UNL     1      24.086   0.490  52.959  1.00  0.00     0.103 A 
ENDROOT
BRANCH   7  11
HETATM   11  N3  UNL     1      24.260   4.185  51.195  1.00  0.00    -0.246 NA
BRANCH  11  12
HETATM   12  P1  UNL     1      24.789   4.174  49.711  1.00  0.00    -0.012 P 
HETATM   13  C7  UNL     1      25.022   5.823  49.073  1.00  0.00     0.048 A 
HETATM   14  C8  UNL     1      26.090   6.426  48.577  1.00  0.00     0.074 A 
HETATM   15 CL1  UNL     1      26.139   8.072  47.989  1.00  0.00    -0.081 Cl
HETATM   16  C9  UNL     1      27.284   5.604  48.547  1.00  0.00     0.134 A 
HETATM   17  F1  UNL     1      28.429   6.139  48.054  1.00  0.00    -0.205 F 
HETATM   18  C10 UNL     1      27.342   4.351  48.970  1.00  0.00     0.023 A 
HETATM   19  C11 UNL     1      26.403   3.366  49.565  1.00  0.00     0.084 A 
HETATM   20  H6  UNL     1      23.810   3.512  48.935  1.00  0.00     0.081 HD
ENDBRANCH  11  12
ENDBRANCH   7  11
BRANCH  10  21
HETATM   21  O2  UNL     1      25.164  -0.348  53.180  1.00  0.00    -0.342 OA
BRANCH  21  22
HETATM   22  C15 UNL     1      26.490   0.081  53.379  1.00  0.00     0.145 C 
HETATM   23  C16 UNL     1      26.771   0.254  54.877  1.00  0.00     0.050 C 
HETATM   24  C17 UNL     1      28.290   0.142  54.872  1.00  0.00     0.123 C 
HETATM   25  N4  UNL     1      28.592  -0.908  53.936  1.00  0.00    -0.197 NA
HETATM   26  C18 UNL     1      27.459  -1.070  53.078  1.00  0.00     0.153 C 
BRANCH  25  27
HETATM   27  O3  UNL     1      29.747  -0.690  53.293  1.00  0.00    -0.313 OA
HETATM   28  H17 UNL     1      29.510  -0.295  52.404  1.00  0.00     0.237 HD
ENDBRANCH  25  27
ENDBRANCH  21  22
ENDBRANCH  10  21
BRANCH   1  29
HETATM   29  O1  UNL     1      22.752  -1.250  53.991  1.00  0.00    -0.353 OA
HETATM   30  C1  UNL     1      21.535  -1.684  54.539  1.00  0.00     0.210 C 
ENDBRANCH   1  29
TORSDOF 6
ENDMDL
MODEL 2
REMARK VINA RESULT:      -8.2      4.258      7.139
REMARK  6 active torsions:
REMARK  status: ('A' for Active; 'I' for Inactive)
REMARK    1  A    between atoms: O1_2  and  C2_3 
REMARK    2  A    between atoms: C6_9  and  N3_10 
REMARK    3  A    between atoms: N3_10  and  P1_11 
REMARK    4  A    between atoms: C14_21  and  O2_22 
REMARK    5  A    between atoms: O2_22  and  C15_23 
REMARK    6  A    between atoms: N4_26  and  O3_27 
ROOT
HETATM    1  C2  UNL     1      26.986   0.575  53.151  1.00  0.00     0.103 A 
HETATM    2  C3  UNL     1      26.648  -0.112  54.298  1.00  0.00     0.072 A 
HETATM    3  C4  UNL     1      25.346  -0.517  54.541  1.00  0.00     0.075 A 
HETATM    4  N1  UNL     1      24.928  -1.188  55.629  1.00  0.00    -0.241 NA
HETATM    5  C5  UNL     1      23.630  -1.537  55.770  1.00  0.00     0.236 A 
HETATM    6  N2  UNL     1      22.739  -1.215  54.818  1.00  0.00    -0.222 NA
HETATM    7  C6  UNL     1      23.070  -0.536  53.685  1.00  0.00     0.162 A 
HETATM    8  C12 UNL     1      24.420  -0.193  53.577  1.00  0.00     0.043 A 
HETATM    9  C13 UNL     1      24.755   0.489  52.435  1.00  0.00     0.057 A 
HETATM   10  C14 UNL     1      26.048   0.894  52.187  1.00  0.00     0.103 A 
ENDROOT
BRANCH   7  11
HETATM   11  N3  UNL     1      22.130  -0.198  52.686  1.00  0.00    -0.246 NA
BRANCH  11  12
HETATM   12  P1  UNL     1      20.722   0.464  52.936  1.00  0.00    -0.012 P 
HETATM   13  C7  UNL     1      20.084   1.252  51.468  1.00  0.00     0.048 A 
HETATM   14  C8  UNL     1      18.959   1.068  50.796  1.00  0.00     0.074 A 
HETATM   15 CL1  UNL     1      18.489   1.942  49.357  1.00  0.00    -0.081 Cl
HETATM   16  C9  UNL     1      18.091   0.047  51.347  1.00  0.00     0.134 A 
HETATM   17  F1  UNL     1      16.913  -0.210  50.724  1.00  0.00    -0.205 F 
HETATM   18  C10 UNL     1      18.363  -0.665  52.430  1.00  0.00     0.023 A 
HETATM   19  C11 UNL     1      19.469  -0.752  53.417  1.00  0.00     0.084 A 
HETATM   20  H6  UNL     1      20.904   1.441  53.942  1.00  0.00     0.081 HD
ENDBRANCH  11  12
ENDBRANCH   7  11
BRANCH  10  21
HETATM   21  O2  UNL     1      26.559   1.584  51.103  1.00  0.00    -0.342 OA
BRANCH  21  22
HETATM   22  C15 UNL     1      26.538   2.985  50.955  1.00  0.00     0.145 C 
HETATM   23  C16 UNL     1      26.641   3.361  49.472  1.00  0.00     0.050 C 
HETATM   24  C17 UNL     1      26.042   4.761  49.517  1.00  0.00     0.123 C 
HETATM   25  N4  UNL     1      24.932   4.672  50.427  1.00  0.00    -0.197 NA
HETATM   26  C18 UNL     1      25.129   3.517  51.247  1.00  0.00     0.153 C 
BRANCH  25  27
HETATM   27  O3  UNL     1      24.750   5.810  51.109  1.00  0.00    -0.313 OA
HETATM   28  H17 UNL     1      24.265   5.566  51.950  1.00  0.00     0.237 HD
ENDBRANCH  25  27
ENDBRANCH  21  22
ENDBRANCH  10  21
BRANCH   1  29
HETATM   29  O1  UNL     1      28.316   0.915  53.040  1.00  0.00    -0.353 OA
HETATM   30  C1  UNL     1      29.127   1.088  54.171  1.00  0.00     0.210 C 
ENDBRANCH   1  29
TORSDOF 6
ENDMDL
MODEL 3
REMARK VINA RESULT:      -8.2      4.008      6.405
REMARK  6 active torsions:
REMARK  status: ('A' for Active; 'I' for Inactive)
REMARK    1  A    between atoms: O1_2  and  C2_3 
REMARK    2  A    between atoms: C6_9  and  N3_10 
REMARK    3  A    between atoms: N3_10  and  P1_11 
REMARK    4  A    between atoms: C14_21  and  O2_22 
REMARK    5  A    between atoms: O2_22  and  C15_23 
REMARK    6  A    between atoms: N4_26  and  O3_27 
ROOT
HETATM    1  C2  UNL     1      26.357   4.088  49.664  1.00  0.00     0.103 A 
HETATM    2  C3  UNL     1      25.389   4.749  48.939  1.00  0.00     0.072 A 
HETATM    3  C4  UNL     1      24.043   4.618  49.240  1.00  0.00     0.075 A 
HETATM    4  N1  UNL     1      23.036   5.222  48.588  1.00  0.00    -0.241 NA
HETATM    5  C5  UNL     1      21.752   5.025  48.964  1.00  0.00     0.236 A 
HETATM    6  N2  UNL     1      21.469   4.219  49.999  1.00  0.00    -0.222 NA
HETATM    7  C6  UNL     1      22.424   3.565  50.717  1.00  0.00     0.162 A 
HETATM    8  C12 UNL     1      23.737   3.794  50.297  1.00  0.00     0.043 A 
HETATM    9  C13 UNL     1      24.700   3.136  51.021  1.00  0.00     0.057 A 
HETATM   10  C14 UNL     1      26.039   3.263  50.727  1.00  0.00     0.103 A 
ENDROOT
BRANCH   7  11
HETATM   11  N3  UNL     1      22.124   2.716  51.806  1.00  0.00    -0.246 NA
BRANCH  11  12
HETATM   12  P1  UNL     1      22.033   1.144  51.748  1.00  0.00    -0.012 P 
HETATM   13  C7  UNL     1      23.145   0.367  52.906  1.00  0.00     0.048 A 
HETATM   14  C8  UNL     1      22.922  -0.480  53.898  1.00  0.00     0.074 A 
HETATM   15 CL1  UNL     1      24.149  -1.151  54.947  1.00  0.00    -0.081 Cl
HETATM   16  C9  UNL     1      21.530  -0.841  54.078  1.00  0.00     0.134 A 
HETATM   17  F1  UNL     1      21.206  -1.707  55.071  1.00  0.00    -0.205 F 
HETATM   18  C10 UNL     1      20.534  -0.385  53.334  1.00  0.00     0.023 A 
HETATM   19  C11 UNL     1      20.382   0.537  52.180  1.00  0.00     0.084 A 
HETATM   20  H6  UNL     1      22.394   0.764  50.435  1.00  0.00     0.081 HD
ENDBRANCH  11  12
ENDBRANCH   7  11
BRANCH  10  21
HETATM   21  O2  UNL     1      27.132   2.680  51.342  1.00  0.00    -0.342 OA
BRANCH  21  22
HETATM   22  C15 UNL     1      27.087   1.957  52.550  1.00  0.00     0.145 C 
HETATM   23  C16 UNL     1      26.947   0.457  52.263  1.00  0.00     0.050 C 
HETATM   24  C17 UNL     1      27.482  -0.109  53.572  1.00  0.00     0.123 C 
HETATM   25  N4  UNL     1      28.606   0.719  53.915  1.00  0.00    -0.197 NA
HETATM   26  C18 UNL     1      28.473   1.954  53.206  1.00  0.00     0.153 C 
BRANCH  25  27
HETATM   27  O3  UNL     1      28.745   0.853  55.240  1.00  0.00    -0.313 OA
HETATM   28  H17 UNL     1      29.088  -0.023  55.582  1.00  0.00     0.237 HD
ENDBRANCH  25  27
ENDBRANCH  21  22
ENDBRANCH  10  21
BRANCH   1  29
HETATM   29  O1  UNL     1      27.653   4.311  49.255  1.00  0.00    -0.353 OA
HETATM   30  C1  UNL     1      27.995   5.421  48.468  1.00  0.00     0.210 C 
ENDBRANCH   1  29
TORSDOF 6
ENDMDL
MODEL 4
REMARK VINA RESULT:      -8.2      1.707      2.137
REMARK  6 active torsions:
REMARK  status: ('A' for Active; 'I' for Inactive)
REMARK    1  A    between atoms: O1_2  and  C2_3 
REMARK    2  A    between atoms: C6_9  and  N3_10 
REMARK    3  A    between atoms: N3_10  and  P1_11 
REMARK    4  A    between atoms: C14_21  and  O2_22 
REMARK    5  A    between atoms: O2_22  and  C15_23 
REMARK    6  A    between atoms: N4_26  and  O3_27 
ROOT
HETATM    1  C2  UNL     1      23.749  -0.402  53.867  1.00  0.00     0.103 A 
HETATM    2  C3  UNL     1      22.424  -0.036  53.970  1.00  0.00     0.072 A 
HETATM    3  C4  UNL     1      21.880   0.947  53.162  1.00  0.00     0.075 A 
HETATM    4  N1  UNL     1      20.603   1.366  53.195  1.00  0.00    -0.241 NA
HETATM    5  C5  UNL     1      20.171   2.338  52.360  1.00  0.00     0.236 A 
HETATM    6  N2  UNL     1      21.020   2.898  51.483  1.00  0.00    -0.222 NA
HETATM    7  C6  UNL     1      22.330   2.539  51.379  1.00  0.00     0.162 A 
HETATM    8  C12 UNL     1      22.736   1.533  52.259  1.00  0.00     0.043 A 
HETATM    9  C13 UNL     1      24.056   1.170  52.154  1.00  0.00     0.057 A 
HETATM   10  C14 UNL     1      24.602   0.191  52.955  1.00  0.00     0.103 A 
ENDROOT
BRANCH   7  11
HETATM   11  N3  UNL     1      23.221   3.131  50.456  1.00  0.00    -0.246 NA
BRANCH  11  12
HETATM   12  P1  UNL     1      23.991   4.490  50.665  1.00  0.00    -0.012 P 
HETATM   13  C7  UNL     1      25.651   4.424  50.015  1.00  0.00     0.048 A 
HETATM   14  C8  UNL     1      26.265   5.167  49.109  1.00  0.00     0.074 A 
HETATM   15 CL1  UNL     1      27.920   4.958  48.585  1.00  0.00    -0.081 Cl
HETATM   16  C9  UNL     1      25.447   6.221  48.543  1.00  0.00     0.134 A 
HETATM   17  F1  UNL     1      25.994   7.035  47.605  1.00  0.00    -0.205 F 
HETATM   18  C10 UNL     1      24.187   6.455  48.876  1.00  0.00     0.023 A 
HETATM   19  C11 UNL     1      23.190   5.870  49.808  1.00  0.00     0.084 A 
HETATM   20  H6  UNL     1      24.050   4.715  52.059  1.00  0.00     0.081 HD
ENDBRANCH  11  12
ENDBRANCH   7  11
BRANCH  10  21
HETATM   21  O2  UNL     1      25.897  -0.295  52.986  1.00  0.00    -0.342 OA
BRANCH  21  22
HETATM   22  C15 UNL     1      26.983   0.343  53.616  1.00  0.00     0.145 C 
HETATM   23  C16 UNL     1      28.213  -0.574  53.605  1.00  0.00     0.050 C 
HETATM   24  C17 UNL     1      29.313   0.465  53.777  1.00  0.00     0.123 C 
HETATM   25  N4  UNL     1      28.917   1.579  52.958  1.00  0.00    -0.197 NA
HETATM   26  C18 UNL     1      27.510   1.473  52.723  1.00  0.00     0.153 C 
BRANCH  25  27
HETATM   27  O3  UNL     1      29.305   2.749  53.480  1.00  0.00    -0.313 OA
HETATM   28  H17 UNL     1      29.335   2.624  54.473  1.00  0.00     0.237 HD
ENDBRANCH  25  27
ENDBRANCH  21  22
ENDBRANCH  10  21
BRANCH   1  29
HETATM   29  O1  UNL     1      24.155  -1.394  54.731  1.00  0.00    -0.353 OA
HETATM   30  C1  UNL     1      24.565  -1.104  56.042  1.00  0.00     0.210 C 
ENDBRANCH   1  29
TORSDOF 6
ENDMDL
MODEL 5
REMARK VINA RESULT:      -8.1      4.464      6.769
REMARK  6 active torsions:
REMARK  status: ('A' for Active; 'I' for Inactive)
REMARK    1  A    between atoms: O1_2  and  C2_3 
REMARK    2  A    between atoms: C6_9  and  N3_10 
REMARK    3  A    between atoms: N3_10  and  P1_11 
REMARK    4  A    between atoms: C14_21  and  O2_22 
REMARK    5  A    between atoms: O2_22  and  C15_23 
REMARK    6  A    between atoms: N4_26  and  O3_27 
ROOT
HETATM    1  C2  UNL     1      26.265   3.710  50.012  1.00  0.00     0.103 A 
HETATM    2  C3  UNL     1      25.209   4.272  49.327  1.00  0.00     0.072 A 
HETATM    3  C4  UNL     1      23.911   3.821  49.500  1.00  0.00     0.075 A 
HETATM    4  N1  UNL     1      22.826   4.309  48.874  1.00  0.00    -0.241 NA
HETATM    5  C5  UNL     1      21.599   3.795  49.115  1.00  0.00     0.236 A 
HETATM    6  N2  UNL     1      21.452   2.784  49.987  1.00  0.00    -0.222 NA
HETATM    7  C6  UNL     1      22.493   2.227  50.665  1.00  0.00     0.162 A 
HETATM    8  C12 UNL     1      23.743   2.786  50.389  1.00  0.00     0.043 A 
HETATM    9  C13 UNL     1      24.792   2.225  51.073  1.00  0.00     0.057 A 
HETATM   10  C14 UNL     1      26.085   2.670  50.906  1.00  0.00     0.103 A 
ENDROOT
BRANCH   7  11
HETATM   11  N3  UNL     1      22.334   1.164  51.582  1.00  0.00    -0.246 NA
BRANCH  11  12
HETATM   12  P1  UNL     1      21.276   1.105  52.747  1.00  0.00    -0.012 P 
HETATM   13  C7  UNL     1      19.665   0.608  52.162  1.00  0.00     0.048 A 
HETATM   14  C8  UNL     1      18.881  -0.400  52.510  1.00  0.00     0.074 A 
HETATM   15 CL1  UNL     1      17.311  -0.741  51.822  1.00  0.00    -0.081 Cl
HETATM   16  C9  UNL     1      19.425  -1.252  53.549  1.00  0.00     0.134 A 
HETATM   17  F1  UNL     1      18.690  -2.312  53.970  1.00  0.00    -0.205 F 
HETATM   18  C10 UNL     1      20.602  -1.073  54.127  1.00  0.00     0.023 A 
HETATM   19  C11 UNL     1      21.723  -0.104  54.019  1.00  0.00     0.084 A 
HETATM   20  H6  UNL     1      21.189   2.410  53.285  1.00  0.00     0.081 HD
ENDBRANCH  11  12
ENDBRANCH   7  11
BRANCH  10  21
HETATM   21  O2  UNL     1      27.250   2.227  51.505  1.00  0.00    -0.342 OA
BRANCH  21  22
HETATM   22  C15 UNL     1      27.413   2.006  52.886  1.00  0.00     0.145 C 
HETATM   23  C16 UNL     1      27.471   0.501  53.178  1.00  0.00     0.050 C 
HETATM   24  C17 UNL     1      28.191   0.524  54.520  1.00  0.00     0.123 C 
HETATM   25  N4  UNL     1      29.206   1.535  54.391  1.00  0.00    -0.197 NA
HETATM   26  C18 UNL     1      28.835   2.395  53.310  1.00  0.00     0.153 C 
BRANCH  25  27
HETATM   27  O3  UNL     1      29.434   2.168  55.549  1.00  0.00    -0.313 OA
HETATM   28  H17 UNL     1      28.778   1.800  56.210  1.00  0.00     0.237 HD
ENDBRANCH  25  27
ENDBRANCH  21  22
ENDBRANCH  10  21
BRANCH   1  29
HETATM   29  O1  UNL     1      27.499   4.257  49.744  1.00  0.00    -0.353 OA
HETATM   30  C1  UNL     1      27.741   4.984  48.568  1.00  0.00     0.210 C 
ENDBRANCH   1  29
TORSDOF 6
ENDMDL
MODEL 6
REMARK VINA RESULT:      -7.9      4.706      6.890
REMARK  6 active torsions:
REMARK  status: ('A' for Active; 'I' for Inactive)
REMARK    1  A    between atoms: O1_2  and  C2_3 
REMARK    2  A    between atoms: C6_9  and  N3_10 
REMARK    3  A    between atoms: N3_10  and  P1_11 
REMARK    4  A    between atoms: C14_21  and  O2_22 
REMARK    5  A    between atoms: O2_22  and  C15_23 
REMARK    6  A    between atoms: N4_26  and  O3_27 
ROOT
HETATM    1  C2  UNL     1      25.247   5.068  49.276  1.00  0.00     0.103 A 
HETATM    2  C3  UNL     1      25.417   6.311  48.703  1.00  0.00     0.072 A 
HETATM    3  C4  UNL     1      26.653   6.734  48.244  1.00  0.00     0.075 A 
HETATM    4  N1  UNL     1      26.908   7.924  47.675  1.00  0.00    -0.241 NA
HETATM    5  C5  UNL     1      28.155   8.239  47.260  1.00  0.00     0.236 A 
HETATM    6  N2  UNL     1      29.159   7.360  47.413  1.00  0.00    -0.222 NA
HETATM    7  C6  UNL     1      28.994   6.132  47.978  1.00  0.00     0.162 A 
HETATM    8  C12 UNL     1      27.691   5.845  48.395  1.00  0.00     0.043 A 
HETATM    9  C13 UNL     1      27.524   4.607  48.964  1.00  0.00     0.057 A 
HETATM   10  C14 UNL     1      26.297   4.181  49.422  1.00  0.00     0.103 A 
ENDROOT
BRANCH   7  11
HETATM   11  N3  UNL     1      30.051   5.209  48.139  1.00  0.00    -0.246 NA
BRANCH  11  12
HETATM   12  P1  UNL     1      31.317   5.092  47.208  1.00  0.00    -0.012 P 
HETATM   13  C7  UNL     1      32.793   5.693  48.010  1.00  0.00     0.048 A 
HETATM   14  C8  UNL     1      33.951   5.104  48.267  1.00  0.00     0.074 A 
HETATM   15 CL1  UNL     1      35.308   5.855  49.073  1.00  0.00    -0.081 Cl
HETATM   16  C9  UNL     1      34.035   3.728  47.822  1.00  0.00     0.134 A 
HETATM   17  F1  UNL     1      35.186   3.043  48.043  1.00  0.00    -0.205 F 
HETATM   18  C10 UNL     1      33.061   3.077  47.205  1.00  0.00     0.023 A 
HETATM   19  C11 UNL     1      31.678   3.375  46.756  1.00  0.00     0.084 A 
HETATM   20  H6  UNL     1      31.058   5.882  46.066  1.00  0.00     0.081 HD
ENDBRANCH  11  12
ENDBRANCH   7  11
BRANCH  10  21
HETATM   21  O2  UNL     1      25.951   2.981  50.016  1.00  0.00    -0.342 OA
BRANCH  21  22
HETATM   22  C15 UNL     1      25.770   2.789  51.399  1.00  0.00     0.145 C 
HETATM   23  C16 UNL     1      24.840   1.596  51.649  1.00  0.00     0.050 C 
HETATM   24  C17 UNL     1      25.245   1.244  53.075  1.00  0.00     0.123 C 
HETATM   25  N4  UNL     1      26.675   1.394  53.113  1.00  0.00    -0.197 NA
HETATM   26  C18 UNL     1      27.058   2.232  52.019  1.00  0.00     0.153 C 
BRANCH  25  27
HETATM   27  O3  UNL     1      27.104   1.814  54.310  1.00  0.00    -0.313 OA
HETATM   28  H17 UNL     1      27.771   1.137  54.628  1.00  0.00     0.237 HD
ENDBRANCH  25  27
ENDBRANCH  21  22
ENDBRANCH  10  21
BRANCH   1  29
HETATM   29  O1  UNL     1      23.965   4.780  49.687  1.00  0.00    -0.353 OA
HETATM   30  C1  UNL     1      23.299   5.576  50.632  1.00  0.00     0.210 C 
ENDBRANCH   1  29
TORSDOF 6
ENDMDL
MODEL 7
REMARK VINA RESULT:      -7.8      1.846      2.107
REMARK  6 active torsions:
REMARK  status: ('A' for Active; 'I' for Inactive)
REMARK    1  A    between atoms: O1_2  and  C2_3 
REMARK    2  A    between atoms: C6_9  and  N3_10 
REMARK    3  A    between atoms: N3_10  and  P1_11 
REMARK    4  A    between atoms: C14_21  and  O2_22 
REMARK    5  A    between atoms: O2_22  and  C15_23 
REMARK    6  A    between atoms: N4_26  and  O3_27 
ROOT
HETATM    1  C2  UNL     1      23.697   0.904  52.947  1.00  0.00     0.103 A 
HETATM    2  C3  UNL     1      22.416   1.405  52.854  1.00  0.00     0.072 A 
HETATM    3  C4  UNL     1      22.162   2.644  52.289  1.00  0.00     0.075 A 
HETATM    4  N1  UNL     1      20.949   3.208  52.158  1.00  0.00    -0.241 NA
HETATM    5  C5  UNL     1      20.811   4.427  51.590  1.00  0.00     0.236 A 
HETATM    6  N2  UNL     1      21.892   5.091  51.148  1.00  0.00    -0.222 NA
HETATM    7  C6  UNL     1      23.158   4.598  51.239  1.00  0.00     0.162 A 
HETATM    8  C12 UNL     1      23.259   3.337  51.832  1.00  0.00     0.043 A 
HETATM    9  C13 UNL     1      24.535   2.839  51.924  1.00  0.00     0.057 A 
HETATM   10  C14 UNL     1      24.793   1.608  52.484  1.00  0.00     0.103 A 
ENDROOT
BRANCH   7  11
HETATM   11  N3  UNL     1      24.293   5.299  50.774  1.00  0.00    -0.246 NA
BRANCH  11  12
HETATM   12  P1  UNL     1      24.287   6.743  50.145  1.00  0.00    -0.012 P 
HETATM   13  C7  UNL     1      25.905   7.495  50.183  1.00  0.00     0.048 A 
HETATM   14  C8  UNL     1      26.670   7.973  49.215  1.00  0.00     0.074 A 
HETATM   15 CL1  UNL     1      28.251   8.685  49.435  1.00  0.00    -0.081 Cl
HETATM   16  C9  UNL     1      26.095   7.867  47.888  1.00  0.00     0.134 A 
HETATM   17  F1  UNL     1      26.808   8.332  46.832  1.00  0.00    -0.205 F 
HETATM   18  C10 UNL     1      24.908   7.344  47.625  1.00  0.00     0.023 A 
HETATM   19  C11 UNL     1      23.800   6.730  48.401  1.00  0.00     0.084 A 
HETATM   20  H6  UNL     1      23.399   7.521  50.922  1.00  0.00     0.081 HD
ENDBRANCH  11  12
ENDBRANCH   7  11
BRANCH  10  21
HETATM   21  O2  UNL     1      26.001   0.959  52.656  1.00  0.00    -0.342 OA
BRANCH  21  22
HETATM   22  C15 UNL     1      26.878   1.161  53.740  1.00  0.00     0.145 C 
HETATM   23  C16 UNL     1      27.538  -0.164  54.141  1.00  0.00     0.050 C 
HETATM   24  C17 UNL     1      28.773   0.366  54.857  1.00  0.00     0.123 C 
HETATM   25  N4  UNL     1      29.222   1.482  54.068  1.00  0.00    -0.197 NA
HETATM   26  C18 UNL     1      28.123   1.922  53.266  1.00  0.00     0.153 C 
BRANCH  25  27
HETATM   27  O3  UNL     1      29.776   2.439  54.822  1.00  0.00    -0.313 OA
HETATM   28  H17 UNL     1      30.654   2.079  55.143  1.00  0.00     0.237 HD
ENDBRANCH  25  27
ENDBRANCH  21  22
ENDBRANCH  10  21
BRANCH   1  29
HETATM   29  O1  UNL     1      23.801  -0.339  53.530  1.00  0.00    -0.353 OA
HETATM   30  C1  UNL     1      22.789  -0.851  54.357  1.00  0.00     0.210 C 
ENDBRANCH   1  29
TORSDOF 6
ENDMDL
MODEL 8
REMARK VINA RESULT:      -7.8      3.367      5.571
REMARK  6 active torsions:
REMARK  status: ('A' for Active; 'I' for Inactive)
REMARK    1  A    between atoms: O1_2  and  C2_3 
REMARK    2  A    between atoms: C6_9  and  N3_10 
REMARK    3  A    between atoms: N3_10  and  P1_11 
REMARK    4  A    between atoms: C14_21  and  O2_22 
REMARK    5  A    between atoms: O2_22  and  C15_23 
REMARK    6  A    between atoms: N4_26  and  O3_27 
ROOT
HETATM    1  C2  UNL     1      26.276   4.455  49.706  1.00  0.00     0.103 A 
HETATM    2  C3  UNL     1      25.688   5.651  49.354  1.00  0.00     0.072 A 
HETATM    3  C4  UNL     1      24.469   6.042  49.881  1.00  0.00     0.075 A 
HETATM    4  N1  UNL     1      23.826   7.186  49.594  1.00  0.00    -0.241 NA
HETATM    5  C5  UNL     1      22.635   7.472  50.166  1.00  0.00     0.236 A 
HETATM    6  N2  UNL     1      22.079   6.610  51.033  1.00  0.00    -0.222 NA
HETATM    7  C6  UNL     1      22.657   5.428  51.383  1.00  0.00     0.162 A 
HETATM    8  C12 UNL     1      23.886   5.169  50.770  1.00  0.00     0.043 A 
HETATM    9  C13 UNL     1      24.470   3.978  51.123  1.00  0.00     0.057 A 
HETATM   10  C14 UNL     1      25.682   3.584  50.602  1.00  0.00     0.103 A 
ENDROOT
BRANCH   7  11
HETATM   11  N3  UNL     1      22.070   4.523  52.295  1.00  0.00    -0.246 NA
BRANCH  11  12
HETATM   12  P1  UNL     1      21.084   3.352  51.921  1.00  0.00    -0.012 P 
HETATM   13  C7  UNL     1      20.578   3.426  50.211  1.00  0.00     0.048 A 
HETATM   14  C8  UNL     1      20.683   2.545  49.229  1.00  0.00     0.074 A 
HETATM   15 CL1  UNL     1      20.123   2.788  47.591  1.00  0.00    -0.081 Cl
HETATM   16  C9  UNL     1      21.324   1.301  49.606  1.00  0.00     0.134 A 
HETATM   17  F1  UNL     1      21.475   0.337  48.663  1.00  0.00    -0.205 F 
HETATM   18  C10 UNL     1      21.779   1.028  50.818  1.00  0.00     0.023 A 
HETATM   19  C11 UNL     1      21.845   1.722  52.130  1.00  0.00     0.084 A 
HETATM   20  H6  UNL     1      19.946   3.499  52.746  1.00  0.00     0.081 HD
ENDBRANCH  11  12
ENDBRANCH   7  11
BRANCH  10  21
HETATM   21  O2  UNL     1      26.408   2.432  50.842  1.00  0.00    -0.342 OA
BRANCH  21  22
HETATM   22  C15 UNL     1      26.449   1.746  52.072  1.00  0.00     0.145 C 
HETATM   23  C16 UNL     1      26.649   0.244  51.833  1.00  0.00     0.050 C 
HETATM   24  C17 UNL     1      27.216  -0.161  53.188  1.00  0.00     0.123 C 
HETATM   25  N4  UNL     1      28.115   0.899  53.557  1.00  0.00    -0.197 NA
HETATM   26  C18 UNL     1      27.763   2.058  52.798  1.00  0.00     0.153 C 
BRANCH  25  27
HETATM   27  O3  UNL     1      28.145   1.092  54.882  1.00  0.00    -0.313 OA
HETATM   28  H17 UNL     1      29.108   1.204  55.133  1.00  0.00     0.237 HD
ENDBRANCH  25  27
ENDBRANCH  21  22
ENDBRANCH  10  21
BRANCH   1  29
HETATM   29  O1  UNL     1      27.487   4.194  49.106  1.00  0.00    -0.353 OA
HETATM   30  C1  UNL     1      28.210   5.198  48.443  1.00  0.00     0.210 C 
ENDBRANCH   1  29
TORSDOF 6
ENDMDL
MODEL 9
REMARK VINA RESULT:      -7.7      2.816      5.161
REMARK  6 active torsions:
REMARK  status: ('A' for Active; 'I' for Inactive)
REMARK    1  A    between atoms: O1_2  and  C2_3 
REMARK    2  A    between atoms: C6_9  and  N3_10 
REMARK    3  A    between atoms: N3_10  and  P1_11 
REMARK    4  A    between atoms: C14_21  and  O2_22 
REMARK    5  A    between atoms: O2_22  and  C15_23 
REMARK    6  A    between atoms: N4_26  and  O3_27 
ROOT
HETATM    1  C2  UNL     1      25.799   0.753  52.674  1.00  0.00     0.103 A 
HETATM    2  C3  UNL     1      26.663   1.390  51.808  1.00  0.00     0.072 A 
HETATM    3  C4  UNL     1      26.260   2.480  51.055  1.00  0.00     0.075 A 
HETATM    4  N1  UNL     1      27.033   3.158  50.190  1.00  0.00    -0.241 NA
HETATM    5  C5  UNL     1      26.540   4.212  49.501  1.00  0.00     0.236 A 
HETATM    6  N2  UNL     1      25.265   4.594  49.676  1.00  0.00    -0.222 NA
HETATM    7  C6  UNL     1      24.409   3.967  50.530  1.00  0.00     0.162 A 
HETATM    8  C12 UNL     1      24.956   2.883  51.222  1.00  0.00     0.043 A 
HETATM    9  C13 UNL     1      24.095   2.251  52.084  1.00  0.00     0.057 A 
HETATM   10  C14 UNL     1      24.490   1.167  52.836  1.00  0.00     0.103 A 
ENDROOT
BRANCH   7  11
HETATM   11  N3  UNL     1      23.067   4.371  50.712  1.00  0.00    -0.246 NA
BRANCH  11  12
HETATM   12  P1  UNL     1      21.895   4.153  49.683  1.00  0.00    -0.012 P 
HETATM   13  C7  UNL     1      22.016   5.260  48.289  1.00  0.00     0.048 A 
HETATM   14  C8  UNL     1      22.097   5.025  46.989  1.00  0.00     0.074 A 
HETATM   15 CL1  UNL     1      22.210   6.249  45.747  1.00  0.00    -0.081 Cl
HETATM   16  C9  UNL     1      22.088   3.620  46.632  1.00  0.00     0.134 A 
HETATM   17  F1  UNL     1      22.167   3.283  45.321  1.00  0.00    -0.205 F 
HETATM   18  C10 UNL     1      22.006   2.625  47.502  1.00  0.00     0.023 A 
HETATM   19  C11 UNL     1      21.904   2.485  48.977  1.00  0.00     0.084 A 
HETATM   20  H6  UNL     1      20.691   4.412  50.375  1.00  0.00     0.081 HD
ENDBRANCH  11  12
ENDBRANCH   7  11
BRANCH  10  21
HETATM   21  O2  UNL     1      23.763   0.417  53.742  1.00  0.00    -0.342 OA
BRANCH  21  22
HETATM   22  C15 UNL     1      22.629  -0.355  53.425  1.00  0.00     0.145 C 
HETATM   23  C16 UNL     1      22.318  -1.332  54.566  1.00  0.00     0.050 C 
HETATM   24  C17 UNL     1      20.845  -1.599  54.285  1.00  0.00     0.123 C 
HETATM   25  N4  UNL     1      20.291  -0.326  53.911  1.00  0.00    -0.197 NA
HETATM   26  C18 UNL     1      21.370   0.517  53.497  1.00  0.00     0.153 C 
BRANCH  25  27
HETATM   27  O3  UNL     1      19.309  -0.452  53.009  1.00  0.00    -0.313 OA
HETATM   28  H17 UNL     1      19.417  -1.356  52.592  1.00  0.00     0.237 HD
ENDBRANCH  25  27
ENDBRANCH  21  22
ENDBRANCH  10  21
BRANCH   1  29
HETATM   29  O1  UNL     1      26.333  -0.315  53.359  1.00  0.00    -0.353 OA
HETATM   30  C1  UNL     1      26.928  -1.395  52.688  1.00  0.00     0.210 C 
ENDBRANCH   1  29
TORSDOF 6
ENDMDL
