MODEL 1
REMARK VINA RESULT:      -7.1      0.000      0.000
REMARK  8 active torsions:
REMARK  status: ('A' for Active; 'I' for Inactive)
REMARK    1  A    between atoms: O1_2  and  C2_3 
REMARK    2  A    between atoms: C2_3  and  C3_4 
REMARK    3  A    between atoms: C4_5  and  C5_6 
REMARK    4  A    between atoms: C6_7  and  C7_8 
REMARK    5  A    between atoms: C7_8  and  N1_9 
REMARK    6  A    between atoms: N1_9  and  C8_10 
REMARK    7  A    between atoms: C12_16  and  O2_17 
REMARK    8  A    between atoms: C14_19  and  O3_20 
ROOT
HETATM    1  C8  UNL     1      26.432   2.334  51.979  1.00  0.00     0.137 A 
HETATM    2  N2  UNL     1      27.661   2.064  52.401  1.00  0.00    -0.224 NA
HETATM    3  C9  UNL     1      27.948   0.988  53.154  1.00  0.00     0.235 A 
HETATM    4  N3  UNL     1      26.986   0.120  53.525  1.00  0.00    -0.241 NA
HETATM    5  C10 UNL     1      25.690   0.312  53.140  1.00  0.00     0.075 A 
HETATM    6  C11 UNL     1      24.698  -0.570  53.513  1.00  0.00     0.072 A 
HETATM    7  C12 UNL     1      23.395  -0.355  53.112  1.00  0.00     0.103 A 
HETATM    8  C14 UNL     1      23.126   0.756  52.338  1.00  0.00     0.102 A 
HETATM    9  C16 UNL     1      24.153   1.618  51.986  1.00  0.00     0.057 A 
HETATM   10  C17 UNL     1      25.463   1.433  52.368  1.00  0.00     0.041 A 
ENDROOT
BRANCH   1  11
HETATM   11  N1  UNL     1      26.144   3.486  51.186  1.00  0.00    -0.371 N 
HETATM   12  H12 UNL     1      25.851   4.415  51.513  1.00  0.00     0.161 HD
BRANCH  11  13
HETATM   13  C7  UNL     1      26.277   3.346  49.732  1.00  0.00     0.148 C 
BRANCH  13  14
HETATM   14  C6  UNL     1      26.901   4.573  49.196  1.00  0.00    -0.007 C 
HETATM   15  C5  UNL     1      27.983   4.818  48.480  1.00  0.00    -0.003 C 
BRANCH  15  16
HETATM   16  C4  UNL     1      28.293   6.196  48.127  1.00  0.00    -0.002 C 
HETATM   17  C3  UNL     1      29.526   6.548  47.837  1.00  0.00    -0.001 C 
BRANCH  17  18
HETATM   18  C2  UNL     1      30.794   5.799  47.780  1.00  0.00     0.194 C 
BRANCH  18  19
HETATM   19  O1  UNL     1      31.224   5.332  49.005  1.00  0.00    -0.392 OA
HETATM   20  C1  UNL     1      31.913   6.248  49.758  1.00  0.00     0.201 C 
ENDBRANCH  18  19
ENDBRANCH  17  18
ENDBRANCH  15  16
ENDBRANCH  13  14
ENDBRANCH  11  13
ENDBRANCH   1  11
BRANCH   8  21
HETATM   21  O3  UNL     1      21.815   0.971  51.935  1.00  0.00    -0.353 OA
HETATM   22  C15 UNL     1      21.130   2.103  52.471  1.00  0.00     0.210 C 
ENDBRANCH   8  21
BRANCH   7  23
HETATM   23  O2  UNL     1      22.374  -1.198  53.454  1.00  0.00    -0.353 OA
HETATM   24  C13 UNL     1      21.717  -1.268  54.675  1.00  0.00     0.210 C 
ENDBRANCH   7  23
TORSDOF 8
ENDMDL
MODEL 2
REMARK VINA RESULT:      -6.9      1.923      2.257
REMARK  8 active torsions:
REMARK  status: ('A' for Active; 'I' for Inactive)
REMARK    1  A    between atoms: O1_2  and  C2_3 
REMARK    2  A    between atoms: C2_3  and  C3_4 
REMARK    3  A    between atoms: C4_5  and  C5_6 
REMARK    4  A    between atoms: C6_7  and  C7_8 
REMARK    5  A    between atoms: C7_8  and  N1_9 
REMARK    6  A    between atoms: N1_9  and  C8_10 
REMARK    7  A    between atoms: C12_16  and  O2_17 
REMARK    8  A    between atoms: C14_19  and  O3_20 
ROOT
HETATM    1  C8  UNL     1      26.584   2.482  51.870  1.00  0.00     0.137 A 
HETATM    2  N2  UNL     1      27.803   2.279  52.355  1.00  0.00    -0.224 NA
HETATM    3  C9  UNL     1      28.082   1.288  53.219  1.00  0.00     0.235 A 
HETATM    4  N3  UNL     1      27.123   0.441  53.643  1.00  0.00    -0.241 NA
HETATM    5  C10 UNL     1      25.838   0.569  53.199  1.00  0.00     0.075 A 
HETATM    6  C11 UNL     1      24.848  -0.292  53.625  1.00  0.00     0.072 A 
HETATM    7  C12 UNL     1      23.556  -0.143  53.164  1.00  0.00     0.103 A 
HETATM    8  C14 UNL     1      23.295   0.882  52.276  1.00  0.00     0.102 A 
HETATM    9  C16 UNL     1      24.319   1.725  51.874  1.00  0.00     0.057 A 
HETATM   10  C17 UNL     1      25.618   1.605  52.314  1.00  0.00     0.041 A 
ENDROOT
BRANCH   1  11
HETATM   11  N1  UNL     1      26.304   3.546  50.958  1.00  0.00    -0.371 N 
HETATM   12  H12 UNL     1      25.914   4.471  51.176  1.00  0.00     0.161 HD
BRANCH  11  13
HETATM   13  C7  UNL     1      26.604   3.307  49.543  1.00  0.00     0.148 C 
BRANCH  13  14
HETATM   14  C6  UNL     1      27.094   4.567  48.947  1.00  0.00    -0.007 C 
HETATM   15  C5  UNL     1      26.646   5.809  48.921  1.00  0.00    -0.003 C 
BRANCH  15  16
HETATM   16  C4  UNL     1      27.418   6.819  48.213  1.00  0.00    -0.002 C 
HETATM   17  C3  UNL     1      27.532   8.035  48.701  1.00  0.00    -0.001 C 
BRANCH  17  18
HETATM   18  C2  UNL     1      27.007   8.676  49.919  1.00  0.00     0.194 C 
BRANCH  18  19
HETATM   19  O1  UNL     1      26.982  10.055  49.861  1.00  0.00    -0.392 OA
HETATM   20  C1  UNL     1      27.836  10.605  48.939  1.00  0.00     0.201 C 
ENDBRANCH  18  19
ENDBRANCH  17  18
ENDBRANCH  15  16
ENDBRANCH  13  14
ENDBRANCH  11  13
ENDBRANCH   1  11
BRANCH   8  21
HETATM   21  O3  UNL     1      21.995   1.031  51.812  1.00  0.00    -0.353 OA
HETATM   22  C15 UNL     1      21.208   2.088  52.362  1.00  0.00     0.210 C 
ENDBRANCH   8  21
BRANCH   7  23
HETATM   23  O2  UNL     1      22.539  -0.968  53.554  1.00  0.00    -0.353 OA
HETATM   24  C13 UNL     1      22.219  -1.351  54.850  1.00  0.00     0.210 C 
ENDBRANCH   7  23
TORSDOF 8
ENDMDL
MODEL 3
REMARK VINA RESULT:      -6.9      2.863      4.075
REMARK  8 active torsions:
REMARK  status: ('A' for Active; 'I' for Inactive)
REMARK    1  A    between atoms: O1_2  and  C2_3 
REMARK    2  A    between atoms: C2_3  and  C3_4 
REMARK    3  A    between atoms: C4_5  and  C5_6 
REMARK    4  A    between atoms: C6_7  and  C7_8 
REMARK    5  A    between atoms: C7_8  and  N1_9 
REMARK    6  A    between atoms: N1_9  and  C8_10 
REMARK    7  A    between atoms: C12_16  and  O2_17 
REMARK    8  A    between atoms: C14_19  and  O3_20 
ROOT
HETATM    1  C8  UNL     1      23.443   3.288  52.424  1.00  0.00     0.137 A 
HETATM    2  N2  UNL     1      22.264   2.946  51.919  1.00  0.00    -0.224 NA
HETATM    3  C9  UNL     1      21.878   1.665  51.787  1.00  0.00     0.235 A 
HETATM    4  N3  UNL     1      22.681   0.651  52.166  1.00  0.00    -0.241 NA
HETATM    5  C10 UNL     1      23.913   0.903  52.698  1.00  0.00     0.075 A 
HETATM    6  C11 UNL     1      24.743  -0.126  53.090  1.00  0.00     0.072 A 
HETATM    7  C12 UNL     1      25.985   0.152  53.624  1.00  0.00     0.103 A 
HETATM    8  C14 UNL     1      26.359   1.475  53.750  1.00  0.00     0.102 A 
HETATM    9  C16 UNL     1      25.494   2.479  53.343  1.00  0.00     0.057 A 
HETATM   10  C17 UNL     1      24.249   2.237  52.806  1.00  0.00     0.041 A 
ENDROOT
BRANCH   1  11
HETATM   11  N1  UNL     1      23.841   4.654  52.548  1.00  0.00    -0.371 N 
HETATM   12  H12 UNL     1      24.082   5.161  53.409  1.00  0.00     0.161 HD
BRANCH  11  13
HETATM   13  C7  UNL     1      23.922   5.440  51.313  1.00  0.00     0.148 C 
BRANCH  13  14
HETATM   14  C6  UNL     1      25.184   5.104  50.623  1.00  0.00    -0.007 C 
HETATM   15  C5  UNL     1      25.494   4.761  49.386  1.00  0.00    -0.003 C 
BRANCH  15  16
HETATM   16  C4  UNL     1      26.887   4.494  49.059  1.00  0.00    -0.002 C 
HETATM   17  C3  UNL     1      27.635   5.429  48.515  1.00  0.00    -0.001 C 
BRANCH  17  18
HETATM   18  C2  UNL     1      27.365   6.822  48.118  1.00  0.00     0.194 C 
BRANCH  18  19
HETATM   19  O1  UNL     1      27.426   7.723  49.161  1.00  0.00    -0.392 OA
HETATM   20  C1  UNL     1      28.377   8.701  49.019  1.00  0.00     0.201 C 
ENDBRANCH  18  19
ENDBRANCH  17  18
ENDBRANCH  15  16
ENDBRANCH  13  14
ENDBRANCH  11  13
ENDBRANCH   1  11
BRANCH   8  21
HETATM   21  O3  UNL     1      27.608   1.754  54.288  1.00  0.00    -0.353 OA
HETATM   22  C15 UNL     1      28.544   2.458  53.471  1.00  0.00     0.210 C 
ENDBRANCH   8  21
BRANCH   7  23
HETATM   23  O2  UNL     1      26.846  -0.830  54.028  1.00  0.00    -0.353 OA
HETATM   24  C13 UNL     1      27.730  -1.549  53.234  1.00  0.00     0.210 C 
ENDBRANCH   7  23
TORSDOF 8
ENDMDL
MODEL 4
REMARK VINA RESULT:      -6.9      3.648      5.446
REMARK  8 active torsions:
REMARK  status: ('A' for Active; 'I' for Inactive)
REMARK    1  A    between atoms: O1_2  and  C2_3 
REMARK    2  A    between atoms: C2_3  and  C3_4 
REMARK    3  A    between atoms: C4_5  and  C5_6 
REMARK    4  A    between atoms: C6_7  and  C7_8 
REMARK    5  A    between atoms: C7_8  and  N1_9 
REMARK    6  A    between atoms: N1_9  and  C8_10 
REMARK    7  A    between atoms: C12_16  and  O2_17 
REMARK    8  A    between atoms: C14_19  and  O3_20 
ROOT
HETATM    1  C8  UNL     1      23.287   3.371  52.269  1.00  0.00     0.137 A 
HETATM    2  N2  UNL     1      22.804   4.529  51.835  1.00  0.00    -0.224 NA
HETATM    3  C9  UNL     1      21.494   4.730  51.614  1.00  0.00     0.235 A 
HETATM    4  N3  UNL     1      20.593   3.750  51.824  1.00  0.00    -0.241 NA
HETATM    5  C10 UNL     1      20.993   2.523  52.271  1.00  0.00     0.075 A 
HETATM    6  C11 UNL     1      20.079   1.513  52.490  1.00  0.00     0.072 A 
HETATM    7  C12 UNL     1      20.506   0.281  52.942  1.00  0.00     0.103 A 
HETATM    8  C14 UNL     1      21.857   0.100  53.162  1.00  0.00     0.102 A 
HETATM    9  C16 UNL     1      22.741   1.141  52.928  1.00  0.00     0.057 A 
HETATM   10  C17 UNL     1      22.349   2.382  52.479  1.00  0.00     0.041 A 
ENDROOT
BRANCH   1  11
HETATM   11  N1  UNL     1      24.684   3.173  52.490  1.00  0.00    -0.371 N 
HETATM   12  H12 UNL     1      25.195   3.246  53.379  1.00  0.00     0.161 HD
BRANCH  11  13
HETATM   13  C7  UNL     1      25.501   2.822  51.324  1.00  0.00     0.148 C 
BRANCH  13  14
HETATM   14  C6  UNL     1      26.291   1.617  51.648  1.00  0.00    -0.007 C 
HETATM   15  C5  UNL     1      26.036   0.496  52.298  1.00  0.00    -0.003 C 
BRANCH  15  16
HETATM   16  C4  UNL     1      27.091  -0.498  52.424  1.00  0.00    -0.002 C 
HETATM   17  C3  UNL     1      27.848  -0.534  53.498  1.00  0.00    -0.001 C 
BRANCH  17  18
HETATM   18  C2  UNL     1      27.882   0.279  54.726  1.00  0.00     0.194 C 
BRANCH  18  19
HETATM   19  O1  UNL     1      28.985   1.102  54.824  1.00  0.00    -0.392 OA
HETATM   20  C1  UNL     1      28.989   2.161  53.951  1.00  0.00     0.201 C 
ENDBRANCH  18  19
ENDBRANCH  17  18
ENDBRANCH  15  16
ENDBRANCH  13  14
ENDBRANCH  11  13
ENDBRANCH   1  11
BRANCH   8  21
HETATM   21  O3  UNL     1      22.286  -1.140  53.617  1.00  0.00    -0.353 OA
HETATM   22  C15 UNL     1      22.577  -1.276  55.008  1.00  0.00     0.210 C 
ENDBRANCH   8  21
BRANCH   7  23
HETATM   23  O2  UNL     1      19.643  -0.754  53.174  1.00  0.00    -0.353 OA
HETATM   24  C13 UNL     1      18.292  -0.807  52.857  1.00  0.00     0.210 C 
ENDBRANCH   7  23
TORSDOF 8
ENDMDL
MODEL 5
REMARK VINA RESULT:      -6.8      3.050      4.375
REMARK  8 active torsions:
REMARK  status: ('A' for Active; 'I' for Inactive)
REMARK    1  A    between atoms: O1_2  and  C2_3 
REMARK    2  A    between atoms: C2_3  and  C3_4 
REMARK    3  A    between atoms: C4_5  and  C5_6 
REMARK    4  A    between atoms: C6_7  and  C7_8 
REMARK    5  A    between atoms: C7_8  and  N1_9 
REMARK    6  A    between atoms: N1_9  and  C8_10 
REMARK    7  A    between atoms: C12_16  and  O2_17 
REMARK    8  A    between atoms: C14_19  and  O3_20 
ROOT
HETATM    1  C8  UNL     1      24.785  -0.426  53.727  1.00  0.00     0.137 A 
HETATM    2  N2  UNL     1      25.256  -0.960  54.847  1.00  0.00    -0.224 NA
HETATM    3  C9  UNL     1      24.454  -1.453  55.807  1.00  0.00     0.235 A 
HETATM    4  N3  UNL     1      23.112  -1.428  55.676  1.00  0.00    -0.241 NA
HETATM    5  C10 UNL     1      22.534  -0.899  54.558  1.00  0.00     0.075 A 
HETATM    6  C11 UNL     1      21.162  -0.869  54.413  1.00  0.00     0.072 A 
HETATM    7  C12 UNL     1      20.599  -0.329  53.274  1.00  0.00     0.103 A 
HETATM    8  C14 UNL     1      21.444   0.170  52.303  1.00  0.00     0.102 A 
HETATM    9  C16 UNL     1      22.817   0.120  52.489  1.00  0.00     0.057 A 
HETATM   10  C17 UNL     1      23.411  -0.411  53.612  1.00  0.00     0.041 A 
ENDROOT
BRANCH   1  11
HETATM   11  N1  UNL     1      25.652   0.102  52.721  1.00  0.00    -0.371 N 
HETATM   12  H12 UNL     1      25.689  -0.156  51.727  1.00  0.00     0.161 HD
BRANCH  11  13
HETATM   13  C7  UNL     1      26.608   1.132  53.139  1.00  0.00     0.148 C 
BRANCH  13  14
HETATM   14  C6  UNL     1      26.771   2.099  52.034  1.00  0.00    -0.007 C 
HETATM   15  C5  UNL     1      26.088   2.364  50.935  1.00  0.00    -0.003 C 
BRANCH  15  16
HETATM   16  C4  UNL     1      26.562   3.418  50.051  1.00  0.00    -0.002 C 
HETATM   17  C3  UNL     1      25.763   4.399  49.693  1.00  0.00    -0.001 C 
BRANCH  17  18
HETATM   18  C2  UNL     1      24.359   4.711  50.010  1.00  0.00     0.194 C 
BRANCH  18  19
HETATM   19  O1  UNL     1      24.193   5.425  51.180  1.00  0.00    -0.392 OA
HETATM   20  C1  UNL     1      23.485   4.770  52.156  1.00  0.00     0.201 C 
ENDBRANCH  18  19
ENDBRANCH  17  18
ENDBRANCH  15  16
ENDBRANCH  13  14
ENDBRANCH  11  13
ENDBRANCH   1  11
BRANCH   8  21
HETATM   21  O3  UNL     1      20.877   0.712  51.158  1.00  0.00    -0.353 OA
HETATM   22  C15 UNL     1      21.521   1.841  50.565  1.00  0.00     0.210 C 
ENDBRANCH   8  21
BRANCH   7  23
HETATM   23  O2  UNL     1      19.247  -0.274  53.080  1.00  0.00    -0.353 OA
HETATM   24  C13 UNL     1      18.331  -1.301  53.265  1.00  0.00     0.210 C 
ENDBRANCH   7  23
TORSDOF 8
ENDMDL
MODEL 6
REMARK VINA RESULT:      -6.7      2.256      3.381
REMARK  8 active torsions:
REMARK  status: ('A' for Active; 'I' for Inactive)
REMARK    1  A    between atoms: O1_2  and  C2_3 
REMARK    2  A    between atoms: C2_3  and  C3_4 
REMARK    3  A    between atoms: C4_5  and  C5_6 
REMARK    4  A    between atoms: C6_7  and  C7_8 
REMARK    5  A    between atoms: C7_8  and  N1_9 
REMARK    6  A    between atoms: N1_9  and  C8_10 
REMARK    7  A    between atoms: C12_16  and  O2_17 
REMARK    8  A    between atoms: C14_19  and  O3_20 
ROOT
HETATM    1  C8  UNL     1      25.279   3.045  50.810  1.00  0.00     0.137 A 
HETATM    2  N2  UNL     1      24.151   3.027  50.109  1.00  0.00    -0.224 NA
HETATM    3  C9  UNL     1      23.144   2.179  50.379  1.00  0.00     0.235 A 
HETATM    4  N3  UNL     1      23.232   1.291  51.390  1.00  0.00    -0.241 NA
HETATM    5  C10 UNL     1      24.352   1.234  52.169  1.00  0.00     0.075 A 
HETATM    6  C11 UNL     1      24.452   0.330  53.205  1.00  0.00     0.072 A 
HETATM    7  C12 UNL     1      25.594   0.289  53.979  1.00  0.00     0.103 A 
HETATM    8  C14 UNL     1      26.614   1.170  53.682  1.00  0.00     0.102 A 
HETATM    9  C16 UNL     1      26.473   2.062  52.631  1.00  0.00     0.057 A 
HETATM   10  C17 UNL     1      25.348   2.130  51.840  1.00  0.00     0.041 A 
ENDROOT
BRANCH   1  11
HETATM   11  N1  UNL     1      26.343   3.947  50.503  1.00  0.00    -0.371 N 
HETATM   12  H12 UNL     1      27.176   4.150  51.069  1.00  0.00     0.161 HD
BRANCH  11  13
HETATM   13  C7  UNL     1      26.253   4.677  49.235  1.00  0.00     0.148 C 
BRANCH  13  14
HETATM   14  C6  UNL     1      27.619   4.880  48.710  1.00  0.00    -0.007 C 
HETATM   15  C5  UNL     1      28.335   5.943  48.394  1.00  0.00    -0.003 C 
BRANCH  15  16
HETATM   16  C4  UNL     1      29.688   5.754  47.891  1.00  0.00    -0.002 C 
HETATM   17  C3  UNL     1      30.569   6.727  47.966  1.00  0.00    -0.001 C 
BRANCH  17  18
HETATM   18  C2  UNL     1      30.500   8.101  48.493  1.00  0.00     0.194 C 
BRANCH  18  19
HETATM   19  O1  UNL     1      31.615   8.483  49.211  1.00  0.00    -0.392 OA
HETATM   20  C1  UNL     1      32.770   7.827  48.869  1.00  0.00     0.201 C 
ENDBRANCH  18  19
ENDBRANCH  17  18
ENDBRANCH  15  16
ENDBRANCH  13  14
ENDBRANCH  11  13
ENDBRANCH   1  11
BRANCH   8  21
HETATM   21  O3  UNL     1      27.762   1.129  54.461  1.00  0.00    -0.353 OA
HETATM   22  C15 UNL     1      28.905   1.855  54.004  1.00  0.00     0.210 C 
ENDBRANCH   8  21
BRANCH   7  23
HETATM   23  O2  UNL     1      25.744  -0.587  55.018  1.00  0.00    -0.353 OA
HETATM   24  C13 UNL     1      24.737  -1.190  55.759  1.00  0.00     0.210 C 
ENDBRANCH   7  23
TORSDOF 8
ENDMDL
MODEL 7
REMARK VINA RESULT:      -6.6      3.859      5.915
REMARK  8 active torsions:
REMARK  status: ('A' for Active; 'I' for Inactive)
REMARK    1  A    between atoms: O1_2  and  C2_3 
REMARK    2  A    between atoms: C2_3  and  C3_4 
REMARK    3  A    between atoms: C4_5  and  C5_6 
REMARK    4  A    between atoms: C6_7  and  C7_8 
REMARK    5  A    between atoms: C7_8  and  N1_9 
REMARK    6  A    between atoms: N1_9  and  C8_10 
REMARK    7  A    between atoms: C12_16  and  O2_17 
REMARK    8  A    between atoms: C14_19  and  O3_20 
ROOT
HETATM    1  C8  UNL     1      22.465   0.373  53.376  1.00  0.00     0.137 A 
HETATM    2  N2  UNL     1      21.863  -0.333  54.326  1.00  0.00    -0.224 NA
HETATM    3  C9  UNL     1      22.538  -1.125  55.176  1.00  0.00     0.235 A 
HETATM    4  N3  UNL     1      23.879  -1.243  55.105  1.00  0.00    -0.241 NA
HETATM    5  C10 UNL     1      24.587  -0.555  54.162  1.00  0.00     0.075 A 
HETATM    6  C11 UNL     1      25.960  -0.669  54.079  1.00  0.00     0.072 A 
HETATM    7  C12 UNL     1      26.655   0.036  53.117  1.00  0.00     0.103 A 
HETATM    8  C14 UNL     1      25.939   0.843  52.256  1.00  0.00     0.102 A 
HETATM    9  C16 UNL     1      24.561   0.927  52.373  1.00  0.00     0.057 A 
HETATM   10  C17 UNL     1      23.836   0.239  53.320  1.00  0.00     0.041 A 
ENDROOT
BRANCH   1  11
HETATM   11  N1  UNL     1      21.731   1.203  52.475  1.00  0.00    -0.371 N 
HETATM   12  H12 UNL     1      21.658   2.228  52.485  1.00  0.00     0.161 HD
BRANCH  11  13
HETATM   13  C7  UNL     1      20.989   0.531  51.403  1.00  0.00     0.148 C 
BRANCH  13  14
HETATM   14  C6  UNL     1      21.595   0.902  50.108  1.00  0.00    -0.007 C 
HETATM   15  C5  UNL     1      21.113   1.325  48.954  1.00  0.00    -0.003 C 
BRANCH  15  16
HETATM   16  C4  UNL     1      22.038   1.598  47.864  1.00  0.00    -0.002 C 
HETATM   17  C3  UNL     1      22.509   2.811  47.677  1.00  0.00    -0.001 C 
BRANCH  17  18
HETATM   18  C2  UNL     1      22.297   4.086  48.385  1.00  0.00     0.194 C 
BRANCH  18  19
HETATM   19  O1  UNL     1      23.245   4.356  49.350  1.00  0.00    -0.392 OA
HETATM   20  C1  UNL     1      22.765   4.378  50.635  1.00  0.00     0.201 C 
ENDBRANCH  18  19
ENDBRANCH  17  18
ENDBRANCH  15  16
ENDBRANCH  13  14
ENDBRANCH  11  13
ENDBRANCH   1  11
BRANCH   8  21
HETATM   21  O3  UNL     1      26.640   1.551  51.289  1.00  0.00    -0.353 OA
HETATM   22  C15 UNL     1      26.208   2.880  50.993  1.00  0.00     0.210 C 
ENDBRANCH   8  21
BRANCH   7  23
HETATM   23  O2  UNL     1      28.014  -0.041  52.992  1.00  0.00    -0.353 OA
HETATM   24  C13 UNL     1      28.950  -0.089  54.018  1.00  0.00     0.210 C 
ENDBRANCH   7  23
TORSDOF 8
ENDMDL
MODEL 8
REMARK VINA RESULT:      -6.5      3.780      6.483
REMARK  8 active torsions:
REMARK  status: ('A' for Active; 'I' for Inactive)
REMARK    1  A    between atoms: O1_2  and  C2_3 
REMARK    2  A    between atoms: C2_3  and  C3_4 
REMARK    3  A    between atoms: C4_5  and  C5_6 
REMARK    4  A    between atoms: C6_7  and  C7_8 
REMARK    5  A    between atoms: C7_8  and  N1_9 
REMARK    6  A    between atoms: N1_9  and  C8_10 
REMARK    7  A    between atoms: C12_16  and  O2_17 
REMARK    8  A    between atoms: C14_19  and  O3_20 
ROOT
HETATM    1  C8  UNL     1      22.545   0.711  52.671  1.00  0.00     0.137 A 
HETATM    2  N2  UNL     1      21.323   0.514  53.152  1.00  0.00    -0.224 NA
HETATM    3  C9  UNL     1      20.368   1.459  53.111  1.00  0.00     0.235 A 
HETATM    4  N3  UNL     1      20.608   2.670  52.572  1.00  0.00    -0.241 NA
HETATM    5  C10 UNL     1      21.834   2.968  52.049  1.00  0.00     0.075 A 
HETATM    6  C11 UNL     1      22.090   4.204  51.495  1.00  0.00     0.072 A 
HETATM    7  C12 UNL     1      23.338   4.483  50.974  1.00  0.00     0.103 A 
HETATM    8  C14 UNL     1      24.302   3.496  51.027  1.00  0.00     0.102 A 
HETATM    9  C16 UNL     1      24.002   2.267  51.594  1.00  0.00     0.057 A 
HETATM   10  C17 UNL     1      22.769   1.956  52.123  1.00  0.00     0.041 A 
ENDROOT
BRANCH   1  11
HETATM   11  N1  UNL     1      23.551  -0.302  52.731  1.00  0.00    -0.371 N 
HETATM   12  H12 UNL     1      23.874  -0.910  51.969  1.00  0.00     0.161 HD
BRANCH  11  13
HETATM   13  C7  UNL     1      24.210  -0.510  54.024  1.00  0.00     0.148 C 
BRANCH  13  14
HETATM   14  C6  UNL     1      25.622  -0.870  53.779  1.00  0.00    -0.007 C 
HETATM   15  C5  UNL     1      26.532  -0.483  52.905  1.00  0.00    -0.003 C 
BRANCH  15  16
HETATM   16  C4  UNL     1      27.860  -1.076  52.965  1.00  0.00    -0.002 C 
HETATM   17  C3  UNL     1      28.756  -0.619  53.813  1.00  0.00    -0.001 C 
BRANCH  17  18
HETATM   18  C2  UNL     1      28.726   0.460  54.815  1.00  0.00     0.194 C 
BRANCH  18  19
HETATM   19  O1  UNL     1      29.478   1.565  54.473  1.00  0.00    -0.392 OA
HETATM   20  C1  UNL     1      28.816   2.497  53.716  1.00  0.00     0.201 C 
ENDBRANCH  18  19
ENDBRANCH  17  18
ENDBRANCH  15  16
ENDBRANCH  13  14
ENDBRANCH  11  13
ENDBRANCH   1  11
BRANCH   8  21
HETATM   21  O3  UNL     1      25.556   3.777  50.503  1.00  0.00    -0.353 OA
HETATM   22  C15 UNL     1      26.623   2.877  50.806  1.00  0.00     0.210 C 
ENDBRANCH   8  21
BRANCH   7  23
HETATM   23  O2  UNL     1      23.645   5.692  50.413  1.00  0.00    -0.353 OA
HETATM   24  C13 UNL     1      23.929   6.877  51.078  1.00  0.00     0.210 C 
ENDBRANCH   7  23
TORSDOF 8
ENDMDL
MODEL 9
REMARK VINA RESULT:      -6.5      3.082      4.845
REMARK  8 active torsions:
REMARK  status: ('A' for Active; 'I' for Inactive)
REMARK    1  A    between atoms: O1_2  and  C2_3 
REMARK    2  A    between atoms: C2_3  and  C3_4 
REMARK    3  A    between atoms: C4_5  and  C5_6 
REMARK    4  A    between atoms: C6_7  and  C7_8 
REMARK    5  A    between atoms: C7_8  and  N1_9 
REMARK    6  A    between atoms: N1_9  and  C8_10 
REMARK    7  A    between atoms: C12_16  and  O2_17 
REMARK    8  A    between atoms: C14_19  and  O3_20 
ROOT
HETATM    1  C8  UNL     1      22.223   0.844  52.754  1.00  0.00     0.137 A 
HETATM    2  N2  UNL     1      21.323   0.211  53.498  1.00  0.00    -0.224 NA
HETATM    3  C9  UNL     1      21.664  -0.701  54.425  1.00  0.00     0.235 A 
HETATM    4  N3  UNL     1      22.954  -1.023  54.646  1.00  0.00    -0.241 NA
HETATM    5  C10 UNL     1      23.952  -0.424  53.931  1.00  0.00     0.075 A 
HETATM    6  C11 UNL     1      25.275  -0.745  54.150  1.00  0.00     0.072 A 
HETATM    7  C12 UNL     1      26.267  -0.127  53.414  1.00  0.00     0.103 A 
HETATM    8  C14 UNL     1      25.892   0.806  52.469  1.00  0.00     0.102 A 
HETATM    9  C16 UNL     1      24.550   1.098  52.281  1.00  0.00     0.057 A 
HETATM   10  C17 UNL     1      23.536   0.502  52.997  1.00  0.00     0.041 A 
ENDROOT
BRANCH   1  11
HETATM   11  N1  UNL     1      21.842   1.804  51.767  1.00  0.00    -0.371 N 
HETATM   12  H12 UNL     1      21.927   1.722  50.747  1.00  0.00     0.161 HD
BRANCH  11  13
HETATM   13  C7  UNL     1      21.259   3.060  52.250  1.00  0.00     0.148 C 
BRANCH  13  14
HETATM   14  C6  UNL     1      22.246   4.142  52.056  1.00  0.00    -0.007 C 
HETATM   15  C5  UNL     1      23.161   4.400  51.139  1.00  0.00    -0.003 C 
BRANCH  15  16
HETATM   16  C4  UNL     1      23.978   5.597  51.280  1.00  0.00    -0.002 C 
HETATM   17  C3  UNL     1      24.789   5.967  50.314  1.00  0.00    -0.001 C 
BRANCH  17  18
HETATM   18  C2  UNL     1      25.095   5.397  48.991  1.00  0.00     0.194 C 
BRANCH  18  19
HETATM   19  O1  UNL     1      26.445   5.296  48.722  1.00  0.00    -0.392 OA
HETATM   20  C1  UNL     1      27.105   6.496  48.642  1.00  0.00     0.201 C 
ENDBRANCH  18  19
ENDBRANCH  17  18
ENDBRANCH  15  16
ENDBRANCH  13  14
ENDBRANCH  11  13
ENDBRANCH   1  11
BRANCH   8  21
HETATM   21  O3  UNL     1      26.889   1.427  51.730  1.00  0.00    -0.353 OA
HETATM   22  C15 UNL     1      26.556   2.631  51.038  1.00  0.00     0.210 C 
ENDBRANCH   8  21
BRANCH   7  23
HETATM   23  O2  UNL     1      27.593  -0.408  53.591  1.00  0.00    -0.353 OA
HETATM   24  C13 UNL     1      28.419   0.050  54.608  1.00  0.00     0.210 C 
ENDBRANCH   7  23
TORSDOF 8
ENDMDL
