MODEL 1
REMARK VINA RESULT:      -8.3      0.000      0.000
REMARK  3 active torsions:
REMARK  status: ('A' for Active; 'I' for Inactive)
REMARK    1  A    between atoms: C1_2  and  C2_3 
REMARK    2  A    between atoms: C2_3  and  N2_4 
REMARK    3  A    between atoms: N2_4  and  C3_5 
ROOT
HETATM    1  C3  UNL     1      26.462  -0.402  53.652  1.00  0.00     0.046 C 
HETATM    2  C4  UNL     1      26.724   0.116  52.473  1.00  0.00     0.145 C 
HETATM    3  N3  UNL     1      26.413   0.749  51.203  1.00  0.00    -0.270 NA
HETATM    4  C5  UNL     1      25.905   1.963  51.233  1.00  0.00     0.130 C 
HETATM    5  C6  UNL     1      25.407   3.082  50.444  1.00  0.00     0.008 A 
HETATM    6  C7  UNL     1      26.204   4.170  50.160  1.00  0.00     0.017 A 
HETATM    7  C8  UNL     1      25.710   5.215  49.391  1.00  0.00     0.025 A 
HETATM    8  C9  UNL     1      24.421   5.091  48.951  1.00  0.00     0.036 A 
HETATM    9 CL1  UNL     1      23.817   6.417  47.983  1.00  0.00    -0.084 Cl
HETATM   10  C10 UNL     1      23.590   4.040  49.204  1.00  0.00     0.054 A 
HETATM   11  C11 UNL     1      24.113   3.019  49.971  1.00  0.00     0.047 A 
HETATM   12  N4  UNL     1      23.236   1.932  50.241  1.00  0.00    -0.339 N 
HETATM   13  C12 UNL     1      22.718   1.238  51.395  1.00  0.00     0.146 A 
HETATM   14  C13 UNL     1      21.346   1.119  51.468  1.00  0.00     0.166 A 
HETATM   15  N5  UNL     1      20.902   0.464  52.541  1.00  0.00    -0.267 NA
HETATM   16  C14 UNL     1      21.731  -0.035  53.470  1.00  0.00     0.148 A 
HETATM   17  C15 UNL     1      23.078   0.095  53.375  1.00  0.00     0.076 A 
HETATM   18  N6  UNL     1      23.546   0.744  52.313  1.00  0.00    -0.229 NA
HETATM   19  C16 UNL     1      23.974  -0.473  54.400  1.00  0.00     0.035 C 
HETATM   20  C17 UNL     1      25.274  -0.634  54.439  1.00  0.00     0.033 C 
HETATM   21  H11 UNL     1      22.854   1.518  49.337  1.00  0.00     0.167 HD
ENDROOT
BRANCH   1  22
HETATM   22  N2  UNL     1      27.742  -0.812  54.185  1.00  0.00    -0.384 N 
HETATM   23  H5  UNL     1      27.863  -0.961  55.232  1.00  0.00     0.160 HD
BRANCH  22  24
HETATM   24  C2  UNL     1      28.834  -1.005  53.252  1.00  0.00     0.166 C 
BRANCH  24  25
HETATM   25  C1  UNL     1      29.317  -2.399  53.399  1.00  0.00     0.099 C 
HETATM   26  N1  UNL     1      28.444  -3.221  52.953  1.00  0.00    -0.315 NA
HETATM   27  H1  UNL     1      27.548  -2.914  52.556  1.00  0.00     0.185 HD
ENDBRANCH  24  25
ENDBRANCH  22  24
ENDBRANCH   1  22
TORSDOF 3
ENDMDL
MODEL 2
REMARK VINA RESULT:      -8.3      2.600      5.100
REMARK  3 active torsions:
REMARK  status: ('A' for Active; 'I' for Inactive)
REMARK    1  A    between atoms: C1_2  and  C2_3 
REMARK    2  A    between atoms: C2_3  and  N2_4 
REMARK    3  A    between atoms: N2_4  and  C3_5 
ROOT
HETATM    1  C3  UNL     1      26.946  -0.078  53.530  1.00  0.00     0.046 C 
HETATM    2  C4  UNL     1      25.897  -0.236  54.305  1.00  0.00     0.145 C 
HETATM    3  N3  UNL     1      24.523  -0.040  54.734  1.00  0.00    -0.270 NA
HETATM    4  C5  UNL     1      23.567  -0.480  53.943  1.00  0.00     0.130 C 
HETATM    5  C6  UNL     1      22.129  -0.614  53.748  1.00  0.00     0.008 A 
HETATM    6  C7  UNL     1      21.472  -1.788  54.048  1.00  0.00     0.017 A 
HETATM    7  C8  UNL     1      20.098  -1.883  53.869  1.00  0.00     0.025 A 
HETATM    8  C9  UNL     1      19.467  -0.768  53.391  1.00  0.00     0.036 A 
HETATM    9 CL1  UNL     1      17.737  -0.907  53.174  1.00  0.00    -0.084 Cl
HETATM   10  C10 UNL     1      20.068   0.415  53.078  1.00  0.00     0.054 A 
HETATM   11  C11 UNL     1      21.433   0.476  53.267  1.00  0.00     0.047 A 
HETATM   12  N4  UNL     1      22.054   1.709  52.926  1.00  0.00    -0.339 N 
HETATM   13  C12 UNL     1      23.122   2.167  52.070  1.00  0.00     0.146 A 
HETATM   14  C13 UNL     1      22.804   3.180  51.190  1.00  0.00     0.166 A 
HETATM   15  N5  UNL     1      23.814   3.586  50.422  1.00  0.00    -0.267 NA
HETATM   16  C14 UNL     1      25.039   3.046  50.504  1.00  0.00     0.148 A 
HETATM   17  C15 UNL     1      25.328   2.050  51.379  1.00  0.00     0.076 A 
HETATM   18  N6  UNL     1      24.336   1.627  52.157  1.00  0.00    -0.229 NA
HETATM   19  C16 UNL     1      26.684   1.478  51.465  1.00  0.00     0.035 C 
HETATM   20  C17 UNL     1      27.241   0.661  52.325  1.00  0.00     0.033 C 
HETATM   21  H11 UNL     1      21.602   2.520  53.447  1.00  0.00     0.167 HD
ENDROOT
BRANCH   1  22
HETATM   22  N2  UNL     1      27.994  -0.871  54.135  1.00  0.00    -0.384 N 
HETATM   23  H5  UNL     1      27.866  -1.272  55.112  1.00  0.00     0.160 HD
BRANCH  22  24
HETATM   24  C2  UNL     1      29.204  -1.092  53.368  1.00  0.00     0.166 C 
BRANCH  24  25
HETATM   25  C1  UNL     1      29.470  -2.549  53.346  1.00  0.00     0.099 C 
HETATM   26  N1  UNL     1      28.425  -3.186  52.970  1.00  0.00    -0.315 NA
HETATM   27  H1  UNL     1      27.547  -2.711  52.726  1.00  0.00     0.185 HD
ENDBRANCH  24  25
ENDBRANCH  22  24
ENDBRANCH   1  22
TORSDOF 3
ENDMDL
MODEL 3
REMARK VINA RESULT:      -8.1      3.448      6.506
REMARK  3 active torsions:
REMARK  status: ('A' for Active; 'I' for Inactive)
REMARK    1  A    between atoms: C1_2  and  C2_3 
REMARK    2  A    between atoms: C2_3  and  N2_4 
REMARK    3  A    between atoms: N2_4  and  C3_5 
ROOT
HETATM    1  C3  UNL     1      21.888   4.959  51.860  1.00  0.00     0.046 C 
HETATM    2  C4  UNL     1      22.993   4.574  52.459  1.00  0.00     0.145 C 
HETATM    3  N3  UNL     1      23.878   3.645  53.142  1.00  0.00    -0.270 NA
HETATM    4  C5  UNL     1      24.288   2.588  52.474  1.00  0.00     0.130 C 
HETATM    5  C6  UNL     1      25.092   1.374  52.513  1.00  0.00     0.008 A 
HETATM    6  C7  UNL     1      26.367   1.341  51.991  1.00  0.00     0.017 A 
HETATM    7  C8  UNL     1      27.119   0.176  52.058  1.00  0.00     0.025 A 
HETATM    8  C9  UNL     1      26.523  -0.899  52.657  1.00  0.00     0.036 A 
HETATM    9 CL1  UNL     1      27.486  -2.358  52.732  1.00  0.00    -0.084 Cl
HETATM   10  C10 UNL     1      25.268  -0.922  53.187  1.00  0.00     0.054 A 
HETATM   11  C11 UNL     1      24.548   0.253  53.105  1.00  0.00     0.047 A 
HETATM   12  N4  UNL     1      23.234   0.218  53.648  1.00  0.00    -0.339 N 
HETATM   13  C12 UNL     1      21.887   0.489  53.207  1.00  0.00     0.146 A 
HETATM   14  C13 UNL     1      20.968  -0.520  53.406  1.00  0.00     0.166 A 
HETATM   15  N5  UNL     1      19.732  -0.233  52.996  1.00  0.00    -0.267 NA
HETATM   16  C14 UNL     1      19.418   0.944  52.436  1.00  0.00     0.148 A 
HETATM   17  C15 UNL     1      20.341   1.921  52.251  1.00  0.00     0.076 A 
HETATM   18  N6  UNL     1      21.582   1.659  52.652  1.00  0.00    -0.229 NA
HETATM   19  C16 UNL     1      19.974   3.215  51.645  1.00  0.00     0.035 C 
HETATM   20  C17 UNL     1      20.623   4.347  51.531  1.00  0.00     0.033 C 
HETATM   21  H11 UNL     1      23.251  -0.100  54.664  1.00  0.00     0.167 HD
ENDROOT
BRANCH   1  22
HETATM   22  N2  UNL     1      22.109   6.342  51.500  1.00  0.00    -0.384 N 
HETATM   23  H5  UNL     1      21.807   7.122  52.159  1.00  0.00     0.160 HD
BRANCH  22  24
HETATM   24  C2  UNL     1      22.745   6.617  50.227  1.00  0.00     0.166 C 
BRANCH  24  25
HETATM   25  C1  UNL     1      23.619   7.801  50.401  1.00  0.00     0.099 C 
HETATM   26  N1  UNL     1      24.182   7.773  51.551  1.00  0.00    -0.315 NA
HETATM   27  H1  UNL     1      24.021   7.016  52.226  1.00  0.00     0.185 HD
ENDBRANCH  24  25
ENDBRANCH  22  24
ENDBRANCH   1  22
TORSDOF 3
ENDMDL
MODEL 4
REMARK VINA RESULT:      -8.0      2.978      3.911
REMARK  3 active torsions:
REMARK  status: ('A' for Active; 'I' for Inactive)
REMARK    1  A    between atoms: C1_2  and  C2_3 
REMARK    2  A    between atoms: C2_3  and  N2_4 
REMARK    3  A    between atoms: N2_4  and  C3_5 
ROOT
HETATM    1  C3  UNL     1      26.291   2.095  52.114  1.00  0.00     0.046 C 
HETATM    2  C4  UNL     1      26.624   2.413  50.882  1.00  0.00     0.145 C 
HETATM    3  N3  UNL     1      26.505   3.111  49.614  1.00  0.00    -0.270 NA
HETATM    4  C5  UNL     1      26.660   4.418  49.619  1.00  0.00     0.130 C 
HETATM    5  C6  UNL     1      26.675   5.634  48.817  1.00  0.00     0.008 A 
HETATM    6  C7  UNL     1      27.857   6.190  48.379  1.00  0.00     0.017 A 
HETATM    7  C8  UNL     1      27.843   7.339  47.601  1.00  0.00     0.025 A 
HETATM    8  C9  UNL     1      26.613   7.861  47.310  1.00  0.00     0.036 A 
HETATM    9 CL1  UNL     1      26.614   9.308  46.327  1.00  0.00    -0.084 Cl
HETATM   10  C10 UNL     1      25.415   7.354  47.716  1.00  0.00     0.054 A 
HETATM   11  C11 UNL     1      25.465   6.211  48.488  1.00  0.00     0.047 A 
HETATM   12  N4  UNL     1      24.212   5.696  48.920  1.00  0.00    -0.339 N 
HETATM   13  C12 UNL     1      23.570   5.350  50.166  1.00  0.00     0.146 A 
HETATM   14  C13 UNL     1      22.335   5.920  50.391  1.00  0.00     0.166 A 
HETATM   15  N5  UNL     1      21.766   5.572  51.546  1.00  0.00    -0.267 NA
HETATM   16  C14 UNL     1      22.355   4.735  52.412  1.00  0.00     0.148 A 
HETATM   17  C15 UNL     1      23.572   4.187  52.166  1.00  0.00     0.076 A 
HETATM   18  N6  UNL     1      24.160   4.518  51.021  1.00  0.00    -0.229 NA
HETATM   19  C16 UNL     1      24.198   3.257  53.125  1.00  0.00     0.035 C 
HETATM   20  C17 UNL     1      25.249   2.480  53.036  1.00  0.00     0.033 C 
HETATM   21  H11 UNL     1      23.568   5.518  48.091  1.00  0.00     0.167 HD
ENDROOT
BRANCH   1  22
HETATM   22  N2  UNL     1      27.266   1.113  52.534  1.00  0.00    -0.384 N 
HETATM   23  H5  UNL     1      27.699   0.450  51.824  1.00  0.00     0.160 HD
BRANCH  22  24
HETATM   24  C2  UNL     1      27.621   1.070  53.939  1.00  0.00     0.166 C 
BRANCH  24  25
HETATM   25  C1  UNL     1      29.096   1.172  54.039  1.00  0.00     0.099 C 
HETATM   26  N1  UNL     1      29.434   2.335  54.452  1.00  0.00    -0.315 NA
HETATM   27  H1  UNL     1      28.744   3.065  54.672  1.00  0.00     0.185 HD
ENDBRANCH  24  25
ENDBRANCH  22  24
ENDBRANCH   1  22
TORSDOF 3
ENDMDL
MODEL 5
REMARK VINA RESULT:      -8.0      3.085      5.391
REMARK  3 active torsions:
REMARK  status: ('A' for Active; 'I' for Inactive)
REMARK    1  A    between atoms: C1_2  and  C2_3 
REMARK    2  A    between atoms: C2_3  and  N2_4 
REMARK    3  A    between atoms: N2_4  and  C3_5 
ROOT
HETATM    1  C3  UNL     1      26.560   2.364  51.996  1.00  0.00     0.046 C 
HETATM    2  C4  UNL     1      25.702   2.105  52.958  1.00  0.00     0.145 C 
HETATM    3  N3  UNL     1      24.390   1.987  53.569  1.00  0.00    -0.270 NA
HETATM    4  C5  UNL     1      23.560   1.096  53.068  1.00  0.00     0.130 C 
HETATM    5  C6  UNL     1      22.236   0.496  53.160  1.00  0.00     0.008 A 
HETATM    6  C7  UNL     1      22.036  -0.702  53.812  1.00  0.00     0.017 A 
HETATM    7  C8  UNL     1      20.761  -1.243  53.901  1.00  0.00     0.025 A 
HETATM    8  C9  UNL     1      19.753  -0.528  53.315  1.00  0.00     0.036 A 
HETATM    9 CL1  UNL     1      18.153  -1.226  53.437  1.00  0.00    -0.084 Cl
HETATM   10  C10 UNL     1      19.895   0.658  52.658  1.00  0.00     0.054 A 
HETATM   11  C11 UNL     1      21.176   1.169  52.589  1.00  0.00     0.047 A 
HETATM   12  N4  UNL     1      21.318   2.399  51.891  1.00  0.00    -0.339 N 
HETATM   13  C12 UNL     1      22.086   2.918  50.784  1.00  0.00     0.146 A 
HETATM   14  C13 UNL     1      21.366   3.530  49.779  1.00  0.00     0.166 A 
HETATM   15  N5  UNL     1      22.106   4.006  48.777  1.00  0.00    -0.267 NA
HETATM   16  C14 UNL     1      23.442   3.894  48.758  1.00  0.00     0.148 A 
HETATM   17  C15 UNL     1      24.127   3.288  49.759  1.00  0.00     0.076 A 
HETATM   18  N6  UNL     1      23.411   2.804  50.770  1.00  0.00    -0.229 NA
HETATM   19  C16 UNL     1      25.598   3.187  49.726  1.00  0.00     0.035 C 
HETATM   20  C17 UNL     1      26.475   2.822  50.629  1.00  0.00     0.033 C 
HETATM   21  H11 UNL     1      20.677   3.145  52.299  1.00  0.00     0.167 HD
ENDROOT
BRANCH   1  22
HETATM   22  N2  UNL     1      27.864   2.101  52.563  1.00  0.00    -0.384 N 
HETATM   23  H5  UNL     1      28.677   2.758  52.365  1.00  0.00     0.160 HD
BRANCH  22  24
HETATM   24  C2  UNL     1      28.015   0.924  53.396  1.00  0.00     0.166 C 
BRANCH  24  25
HETATM   25  C1  UNL     1      29.222   1.112  54.235  1.00  0.00     0.099 C 
HETATM   26  N1  UNL     1      29.422   2.358  54.454  1.00  0.00    -0.315 NA
HETATM   27  H1  UNL     1      28.805   3.090  54.080  1.00  0.00     0.185 HD
ENDBRANCH  24  25
ENDBRANCH  22  24
ENDBRANCH   1  22
TORSDOF 3
ENDMDL
MODEL 6
REMARK VINA RESULT:      -7.9      2.238      2.609
REMARK  3 active torsions:
REMARK  status: ('A' for Active; 'I' for Inactive)
REMARK    1  A    between atoms: C1_2  and  C2_3 
REMARK    2  A    between atoms: C2_3  and  N2_4 
REMARK    3  A    between atoms: N2_4  and  C3_5 
ROOT
HETATM    1  C3  UNL     1      25.993  -0.136  54.507  1.00  0.00     0.046 C 
HETATM    2  C4  UNL     1      25.921   0.619  53.434  1.00  0.00     0.145 C 
HETATM    3  N3  UNL     1      25.264   1.287  52.323  1.00  0.00    -0.270 NA
HETATM    4  C5  UNL     1      24.374   2.214  52.607  1.00  0.00     0.130 C 
HETATM    5  C6  UNL     1      23.431   3.185  52.069  1.00  0.00     0.008 A 
HETATM    6  C7  UNL     1      23.763   4.518  51.951  1.00  0.00     0.017 A 
HETATM    7  C8  UNL     1      22.852   5.419  51.418  1.00  0.00     0.025 A 
HETATM    8  C9  UNL     1      21.644   4.908  51.033  1.00  0.00     0.036 A 
HETATM    9 CL1  UNL     1      20.509   6.059  50.363  1.00  0.00    -0.084 Cl
HETATM   10  C10 UNL     1      21.263   3.602  51.128  1.00  0.00     0.054 A 
HETATM   11  C11 UNL     1      22.193   2.733  51.661  1.00  0.00     0.047 A 
HETATM   12  N4  UNL     1      21.785   1.375  51.770  1.00  0.00    -0.339 N 
HETATM   13  C12 UNL     1      21.678   0.370  52.800  1.00  0.00     0.146 A 
HETATM   14  C13 UNL     1      20.450  -0.247  52.922  1.00  0.00     0.166 A 
HETATM   15  N5  UNL     1      20.388  -1.176  53.875  1.00  0.00    -0.267 NA
HETATM   16  C14 UNL     1      21.441  -1.480  54.649  1.00  0.00     0.148 A 
HETATM   17  C15 UNL     1      22.639  -0.859  54.508  1.00  0.00     0.076 A 
HETATM   18  N6  UNL     1      22.726   0.072  53.564  1.00  0.00    -0.229 NA
HETATM   19  C16 UNL     1      23.789  -1.217  55.360  1.00  0.00     0.035 C 
HETATM   20  C17 UNL     1      25.059  -0.901  55.299  1.00  0.00     0.033 C 
HETATM   21  H11 UNL     1      21.468   0.997  50.826  1.00  0.00     0.167 HD
ENDROOT
BRANCH   1  22
HETATM   22  N2  UNL     1      27.389  -0.132  54.886  1.00  0.00    -0.384 N 
HETATM   23  H5  UNL     1      27.678  -0.419  55.869  1.00  0.00     0.160 HD
BRANCH  22  24
HETATM   24  C2  UNL     1      28.360   0.272  53.888  1.00  0.00     0.166 C 
BRANCH  24  25
HETATM   25  C1  UNL     1      29.298   1.226  54.526  1.00  0.00     0.099 C 
HETATM   26  N1  UNL     1      29.045   2.420  54.143  1.00  0.00    -0.315 NA
HETATM   27  H1  UNL     1      28.287   2.641  53.486  1.00  0.00     0.185 HD
ENDBRANCH  24  25
ENDBRANCH  22  24
ENDBRANCH   1  22
TORSDOF 3
ENDMDL
MODEL 7
REMARK VINA RESULT:      -7.7      3.157      6.533
REMARK  3 active torsions:
REMARK  status: ('A' for Active; 'I' for Inactive)
REMARK    1  A    between atoms: C1_2  and  C2_3 
REMARK    2  A    between atoms: C2_3  and  N2_4 
REMARK    3  A    between atoms: N2_4  and  C3_5 
ROOT
HETATM    1  C3  UNL     1      20.380   0.663  52.783  1.00  0.00     0.046 C 
HETATM    2  C4  UNL     1      21.514   0.010  52.656  1.00  0.00     0.145 C 
HETATM    3  N3  UNL     1      22.934  -0.143  52.389  1.00  0.00    -0.270 NA
HETATM    4  C5  UNL     1      23.778   0.460  53.200  1.00  0.00     0.130 C 
HETATM    5  C6  UNL     1      25.177   0.719  53.509  1.00  0.00     0.008 A 
HETATM    6  C7  UNL     1      25.845  -0.007  54.471  1.00  0.00     0.017 A 
HETATM    7  C8  UNL     1      27.184   0.249  54.734  1.00  0.00     0.025 A 
HETATM    8  C9  UNL     1      27.772   1.237  53.994  1.00  0.00     0.036 A 
HETATM    9 CL1  UNL     1      29.460   1.544  54.338  1.00  0.00    -0.084 Cl
HETATM   10  C10 UNL     1      27.159   1.985  53.033  1.00  0.00     0.054 A 
HETATM   11  C11 UNL     1      25.828   1.705  52.797  1.00  0.00     0.047 A 
HETATM   12  N4  UNL     1      25.192   2.498  51.803  1.00  0.00    -0.339 N 
HETATM   13  C12 UNL     1      24.036   3.355  51.697  1.00  0.00     0.146 A 
HETATM   14  C13 UNL     1      24.262   4.623  51.204  1.00  0.00     0.166 A 
HETATM   15  N5  UNL     1      23.172   5.385  51.110  1.00  0.00    -0.267 NA
HETATM   16  C14 UNL     1      21.957   4.945  51.469  1.00  0.00     0.148 A 
HETATM   17  C15 UNL     1      21.761   3.692  51.950  1.00  0.00     0.076 A 
HETATM   18  N6  UNL     1      22.833   2.912  52.054  1.00  0.00    -0.229 NA
HETATM   19  C16 UNL     1      20.415   3.221  52.327  1.00  0.00     0.035 C 
HETATM   20  C17 UNL     1      19.953   2.034  52.636  1.00  0.00     0.033 C 
HETATM   21  H11 UNL     1      25.720   2.445  50.879  1.00  0.00     0.167 HD
ENDROOT
BRANCH   1  22
HETATM   22  N2  UNL     1      19.401  -0.337  53.149  1.00  0.00    -0.384 N 
HETATM   23  H5  UNL     1      19.526  -0.910  54.036  1.00  0.00     0.160 HD
BRANCH  22  24
HETATM   24  C2  UNL     1      18.262  -0.522  52.272  1.00  0.00     0.166 C 
BRANCH  24  25
HETATM   25  C1  UNL     1      17.201  -1.214  53.041  1.00  0.00     0.099 C 
HETATM   26  N1  UNL     1      17.722  -1.979  53.926  1.00  0.00    -0.315 NA
HETATM   27  H1  UNL     1      18.738  -2.068  54.050  1.00  0.00     0.185 HD
ENDBRANCH  24  25
ENDBRANCH  22  24
ENDBRANCH   1  22
TORSDOF 3
ENDMDL
MODEL 8
REMARK VINA RESULT:      -7.7      2.139      5.422
REMARK  3 active torsions:
REMARK  status: ('A' for Active; 'I' for Inactive)
REMARK    1  A    between atoms: C1_2  and  C2_3 
REMARK    2  A    between atoms: C2_3  and  N2_4 
REMARK    3  A    between atoms: N2_4  and  C3_5 
ROOT
HETATM    1  C3  UNL     1      20.949  -0.078  53.491  1.00  0.00     0.046 C 
HETATM    2  C4  UNL     1      20.837   1.167  53.087  1.00  0.00     0.145 C 
HETATM    3  N3  UNL     1      21.312   2.488  52.713  1.00  0.00    -0.270 NA
HETATM    4  C5  UNL     1      22.085   2.582  51.651  1.00  0.00     0.130 C 
HETATM    5  C6  UNL     1      22.843   3.477  50.787  1.00  0.00     0.008 A 
HETATM    6  C7  UNL     1      22.324   3.933  49.595  1.00  0.00     0.017 A 
HETATM    7  C8  UNL     1      23.061   4.799  48.799  1.00  0.00     0.025 A 
HETATM    8  C9  UNL     1      24.296   5.154  49.266  1.00  0.00     0.036 A 
HETATM    9 CL1  UNL     1      25.209   6.247  48.250  1.00  0.00    -0.084 Cl
HETATM   10  C10 UNL     1      24.857   4.733  50.435  1.00  0.00     0.054 A 
HETATM   11  C11 UNL     1      24.098   3.873  51.202  1.00  0.00     0.047 A 
HETATM   12  N4  UNL     1      24.696   3.427  52.413  1.00  0.00    -0.339 N 
HETATM   13  C12 UNL     1      25.016   2.171  53.048  1.00  0.00     0.146 A 
HETATM   14  C13 UNL     1      26.322   2.014  53.462  1.00  0.00     0.166 A 
HETATM   15  N5  UNL     1      26.581   0.848  54.053  1.00  0.00    -0.267 NA
HETATM   16  C14 UNL     1      25.640  -0.092  54.226  1.00  0.00     0.148 A 
HETATM   17  C15 UNL     1      24.361   0.086  53.810  1.00  0.00     0.076 A 
HETATM   18  N6  UNL     1      24.078   1.242  53.217  1.00  0.00    -0.229 NA
HETATM   19  C16 UNL     1      23.337  -0.954  54.021  1.00  0.00     0.035 C 
HETATM   20  C17 UNL     1      22.035  -0.947  53.879  1.00  0.00     0.033 C 
HETATM   21  H11 UNL     1      24.991   4.252  53.018  1.00  0.00     0.167 HD
ENDROOT
BRANCH   1  22
HETATM   22  N2  UNL     1      19.598  -0.593  53.528  1.00  0.00    -0.384 N 
HETATM   23  H5  UNL     1      19.265  -1.165  54.361  1.00  0.00     0.160 HD
BRANCH  22  24
HETATM   24  C2  UNL     1      18.732  -0.302  52.402  1.00  0.00     0.166 C 
BRANCH  24  25
HETATM   25  C1  UNL     1      17.410  -0.915  52.674  1.00  0.00     0.099 C 
HETATM   26  N1  UNL     1      17.367  -1.367  53.871  1.00  0.00    -0.315 NA
HETATM   27  H1  UNL     1      18.161  -1.292  54.518  1.00  0.00     0.185 HD
ENDBRANCH  24  25
ENDBRANCH  22  24
ENDBRANCH   1  22
TORSDOF 3
ENDMDL
MODEL 9
REMARK VINA RESULT:      -7.3      3.875      6.595
REMARK  3 active torsions:
REMARK  status: ('A' for Active; 'I' for Inactive)
REMARK    1  A    between atoms: C1_2  and  C2_3 
REMARK    2  A    between atoms: C2_3  and  N2_4 
REMARK    3  A    between atoms: N2_4  and  C3_5 
ROOT
HETATM    1  C3  UNL     1      25.155   4.839  49.629  1.00  0.00     0.046 C 
HETATM    2  C4  UNL     1      25.152   4.234  50.796  1.00  0.00     0.145 C 
HETATM    3  N3  UNL     1      24.557   3.602  51.961  1.00  0.00    -0.270 NA
HETATM    4  C5  UNL     1      23.883   2.486  51.774  1.00  0.00     0.130 C 
HETATM    5  C6  UNL     1      23.107   1.427  52.404  1.00  0.00     0.008 A 
HETATM    6  C7  UNL     1      23.678   0.215  52.727  1.00  0.00     0.017 A 
HETATM    7  C8  UNL     1      22.920  -0.772  53.343  1.00  0.00     0.025 A 
HETATM    8  C9  UNL     1      21.612  -0.465  53.596  1.00  0.00     0.036 A 
HETATM    9 CL1  UNL     1      20.673  -1.720  54.374  1.00  0.00    -0.084 Cl
HETATM   10  C10 UNL     1      20.997   0.715  53.298  1.00  0.00     0.054 A 
HETATM   11  C11 UNL     1      21.779   1.674  52.686  1.00  0.00     0.047 A 
HETATM   12  N4  UNL     1      21.128   2.896  52.366  1.00  0.00    -0.339 N 
HETATM   13  C12 UNL     1      20.905   3.715  51.198  1.00  0.00     0.146 A 
HETATM   14  C13 UNL     1      19.594   4.053  50.934  1.00  0.00     0.166 A 
HETATM   15  N5  UNL     1      19.425   4.817  49.855  1.00  0.00    -0.267 NA
HETATM   16  C14 UNL     1      20.452   5.219  49.093  1.00  0.00     0.148 A 
HETATM   17  C15 UNL     1      21.734   4.873  49.375  1.00  0.00     0.076 A 
HETATM   18  N6  UNL     1      21.929   4.111  50.447  1.00  0.00    -0.229 NA
HETATM   19  C16 UNL     1      22.852   5.337  48.533  1.00  0.00     0.035 C 
HETATM   20  C17 UNL     1      24.152   5.291  48.695  1.00  0.00     0.033 C 
HETATM   21  H11 UNL     1      20.677   3.326  53.230  1.00  0.00     0.167 HD
ENDROOT
BRANCH   1  22
HETATM   22  N2  UNL     1      26.549   5.064  49.317  1.00  0.00    -0.384 N 
HETATM   23  H5  UNL     1      27.288   4.362  49.626  1.00  0.00     0.160 HD
BRANCH  22  24
HETATM   24  C2  UNL     1      26.894   6.264  48.580  1.00  0.00     0.166 C 
BRANCH  24  25
HETATM   25  C1  UNL     1      28.333   6.190  48.236  1.00  0.00     0.099 C 
HETATM   26  N1  UNL     1      28.915   5.300  48.948  1.00  0.00    -0.315 NA
HETATM   27  H1  UNL     1      28.415   4.738  49.647  1.00  0.00     0.185 HD
ENDBRANCH  24  25
ENDBRANCH  22  24
ENDBRANCH   1  22
TORSDOF 3
ENDMDL
