MODEL 1
REMARK VINA RESULT:      -9.8      0.000      0.000
REMARK  2 active torsions:
REMARK  status: ('A' for Active; 'I' for Inactive)
REMARK    1  A    between atoms: C5_6  and  N1_7 
REMARK    2  A    between atoms: N1_7  and  C6_8 
ROOT
HETATM    1  C6  UNL     1      25.284   1.600  52.662  1.00  0.00     0.162 A 
HETATM    2  N2  UNL     1      25.996   2.309  51.813  1.00  0.00    -0.256 NA
HETATM    3  C7  UNL     1      25.760   2.918  50.674  1.00  0.00     0.180 A 
HETATM    4  N3  UNL     1      24.559   2.427  50.920  1.00  0.00    -0.405 NA
HETATM    5  C8  UNL     1      24.202   1.725  51.929  1.00  0.00     0.339 A 
HETATM    6  C9  UNL     1      24.088   1.002  53.093  1.00  0.00     0.069 A 
HETATM    7  C10 UNL     1      22.677   0.724  52.919  1.00  0.00    -0.011 C 
HETATM    8  C11 UNL     1      21.842   0.490  51.885  1.00  0.00    -0.004 C 
HETATM    9  C12 UNL     1      20.427   0.240  52.070  1.00  0.00     0.194 C 
HETATM   10  O1  UNL     1      19.487   1.022  51.518  1.00  0.00    -0.387 OA
HETATM   11  C13 UNL     1      19.371   2.343  51.741  1.00  0.00     0.168 C 
HETATM   12  C14 UNL     1      20.513   3.123  51.149  1.00  0.00     0.026 C 
HETATM   13  C15 UNL     1      20.529   3.048  49.632  1.00  0.00     0.004 C 
HETATM   14  C16 UNL     1      21.781   3.639  49.038  1.00  0.00     0.020 C 
HETATM   15  C17 UNL     1      22.072   5.039  49.467  1.00  0.00     0.123 C 
HETATM   16  N4  UNL     1      23.408   5.493  49.061  1.00  0.00    -0.380 N 
HETATM   17  C18 UNL     1      24.366   6.340  48.406  1.00  0.00     0.149 C 
HETATM   18  C19 UNL     1      25.390   6.661  49.512  1.00  0.00     0.187 C 
HETATM   19  O2  UNL     1      24.787   6.518  50.789  1.00  0.00    -0.384 OA
HETATM   20  C20 UNL     1      24.461   5.174  51.031  1.00  0.00     0.224 C 
HETATM   21  C21 UNL     1      24.305   4.571  49.674  1.00  0.00     0.031 C 
HETATM   22  C22 UNL     1      24.988   3.412  49.506  1.00  0.00     0.058 C 
ENDROOT
BRANCH   1  23
HETATM   23  N1  UNL     1      26.233   1.262  53.703  1.00  0.00    -0.360 N 
HETATM   24  H4  UNL     1      26.241   1.572  54.723  1.00  0.00     0.162 HD
BRANCH  23  25
HETATM   25  C5  UNL     1      27.362   0.430  53.570  1.00  0.00     0.033 A 
HETATM   26  C4  UNL     1      28.679   0.831  53.796  1.00  0.00     0.029 A 
HETATM   27  C3  UNL     1      29.811   0.060  53.697  1.00  0.00     0.005 A 
HETATM   28  C2  UNL     1      29.606  -1.253  53.333  1.00  0.00     0.042 A 
HETATM   29  C1  UNL     1      28.341  -1.751  53.086  1.00  0.00     0.118 A 
HETATM   30  F1  UNL     1      28.297  -3.044  52.742  1.00  0.00    -0.206 F 
HETATM   31  C23 UNL     1      27.275  -0.897  53.213  1.00  0.00     0.071 A 
ENDBRANCH  23  25
ENDBRANCH   1  23
TORSDOF 2
ENDMDL
MODEL 2
REMARK VINA RESULT:      -9.8      3.253      6.628
REMARK  2 active torsions:
REMARK  status: ('A' for Active; 'I' for Inactive)
REMARK    1  A    between atoms: C5_6  and  N1_7 
REMARK    2  A    between atoms: N1_7  and  C6_8 
ROOT
HETATM    1  C6  UNL     1      25.410   3.592  50.498  1.00  0.00     0.162 A 
HETATM    2  N2  UNL     1      24.222   3.800  49.972  1.00  0.00    -0.256 NA
HETATM    3  C7  UNL     1      23.085   3.144  49.940  1.00  0.00     0.180 A 
HETATM    4  N3  UNL     1      23.810   2.303  50.653  1.00  0.00    -0.405 NA
HETATM    5  C8  UNL     1      25.035   2.439  51.002  1.00  0.00     0.339 A 
HETATM    6  C9  UNL     1      26.331   2.831  51.235  1.00  0.00     0.069 A 
HETATM    7  C10 UNL     1      26.667   1.660  52.019  1.00  0.00    -0.011 C 
HETATM    8  C11 UNL     1      26.339   0.351  52.018  1.00  0.00    -0.004 C 
HETATM    9  C12 UNL     1      26.877  -0.586  52.984  1.00  0.00     0.194 C 
HETATM   10  O1  UNL     1      26.090  -1.284  53.816  1.00  0.00    -0.387 OA
HETATM   11  C13 UNL     1      25.238  -0.732  54.697  1.00  0.00     0.168 C 
HETATM   12  C14 UNL     1      24.085  -0.042  54.019  1.00  0.00     0.026 C 
HETATM   13  C15 UNL     1      23.194  -1.021  53.273  1.00  0.00     0.004 C 
HETATM   14  C16 UNL     1      22.167  -0.328  52.416  1.00  0.00     0.020 C 
HETATM   15  C17 UNL     1      21.316   0.661  53.143  1.00  0.00     0.123 C 
HETATM   16  N4  UNL     1      20.497   1.479  52.241  1.00  0.00    -0.380 N 
HETATM   17  C18 UNL     1      19.283   2.029  51.701  1.00  0.00     0.149 C 
HETATM   18  C19 UNL     1      19.559   3.543  51.644  1.00  0.00     0.187 C 
HETATM   19  O2  UNL     1      20.563   3.890  52.586  1.00  0.00    -0.384 OA
HETATM   20  C20 UNL     1      21.795   3.323  52.222  1.00  0.00     0.224 C 
HETATM   21  C21 UNL     1      21.436   2.135  51.393  1.00  0.00     0.031 C 
HETATM   22  C22 UNL     1      22.106   2.063  50.217  1.00  0.00     0.058 C 
ENDROOT
BRANCH   1  23
HETATM   23  N1  UNL     1      26.161   4.771  50.118  1.00  0.00    -0.360 N 
HETATM   24  H4  UNL     1      27.217   4.891  50.042  1.00  0.00     0.162 HD
BRANCH  23  25
HETATM   25  C5  UNL     1      25.629   6.024  49.760  1.00  0.00     0.033 A 
HETATM   26  C4  UNL     1      24.985   6.898  50.637  1.00  0.00     0.029 A 
HETATM   27  C3  UNL     1      24.463   8.135  50.345  1.00  0.00     0.005 A 
HETATM   28  C2  UNL     1      24.599   8.543  49.037  1.00  0.00     0.042 A 
HETATM   29  C1  UNL     1      25.220   7.753  48.088  1.00  0.00     0.118 A 
HETATM   30  F1  UNL     1      25.278   8.281  46.859  1.00  0.00    -0.206 F 
HETATM   31  C23 UNL     1      25.708   6.533  48.482  1.00  0.00     0.071 A 
ENDBRANCH  23  25
ENDBRANCH   1  23
TORSDOF 2
ENDMDL
MODEL 3
REMARK VINA RESULT:      -9.6      1.498      1.889
REMARK  2 active torsions:
REMARK  status: ('A' for Active; 'I' for Inactive)
REMARK    1  A    between atoms: C5_6  and  N1_7 
REMARK    2  A    between atoms: N1_7  and  C6_8 
ROOT
HETATM    1  C6  UNL     1      23.604   0.691  52.721  1.00  0.00     0.162 A 
HETATM    2  N2  UNL     1      24.485   1.430  52.081  1.00  0.00    -0.256 NA
HETATM    3  C7  UNL     1      24.451   2.253  51.059  1.00  0.00     0.180 A 
HETATM    4  N3  UNL     1      23.179   1.900  51.107  1.00  0.00    -0.405 NA
HETATM    5  C8  UNL     1      22.631   1.091  51.934  1.00  0.00     0.339 A 
HETATM    6  C9  UNL     1      22.305   0.201  52.930  1.00  0.00     0.069 A 
HETATM    7  C10 UNL     1      20.898   0.157  52.588  1.00  0.00    -0.011 C 
HETATM    8  C11 UNL     1      20.158   0.223  51.462  1.00  0.00    -0.004 C 
HETATM    9  C12 UNL     1      18.711   0.145  51.476  1.00  0.00     0.194 C 
HETATM   10  O1  UNL     1      17.939   1.133  51.001  1.00  0.00    -0.387 OA
HETATM   11  C13 UNL     1      17.962   2.398  51.454  1.00  0.00     0.168 C 
HETATM   12  C14 UNL     1      19.247   3.102  51.116  1.00  0.00     0.026 C 
HETATM   13  C15 UNL     1      19.419   3.289  49.618  1.00  0.00     0.004 C 
HETATM   14  C16 UNL     1      20.791   3.792  49.252  1.00  0.00     0.020 C 
HETATM   15  C17 UNL     1      21.201   5.043  49.957  1.00  0.00     0.123 C 
HETATM   16  N4  UNL     1      22.619   5.370  49.757  1.00  0.00    -0.380 N 
HETATM   17  C18 UNL     1      23.739   6.175  49.354  1.00  0.00     0.149 C 
HETATM   18  C19 UNL     1      24.668   6.155  50.583  1.00  0.00     0.187 C 
HETATM   19  O2  UNL     1      23.916   5.879  51.756  1.00  0.00    -0.384 OA
HETATM   20  C20 UNL     1      23.404   4.572  51.715  1.00  0.00     0.224 C 
HETATM   21  C21 UNL     1      23.325   4.240  50.263  1.00  0.00     0.031 C 
HETATM   22  C22 UNL     1      23.876   3.044  49.941  1.00  0.00     0.058 C 
ENDROOT
BRANCH   1  23
HETATM   23  N1  UNL     1      24.386   0.050  53.758  1.00  0.00    -0.360 N 
HETATM   24  H4  UNL     1      24.065  -0.307  54.709  1.00  0.00     0.162 HD
BRANCH  23  25
HETATM   25  C5  UNL     1      25.763  -0.240  53.710  1.00  0.00     0.033 A 
HETATM   26  C4  UNL     1      26.353  -1.170  52.852  1.00  0.00     0.029 A 
HETATM   27  C3  UNL     1      27.688  -1.479  52.753  1.00  0.00     0.005 A 
HETATM   28  C2  UNL     1      28.523  -0.787  53.603  1.00  0.00     0.042 A 
HETATM   29  C1  UNL     1      28.040   0.154  54.491  1.00  0.00     0.118 A 
HETATM   30  F1  UNL     1      28.969   0.746  55.253  1.00  0.00    -0.206 F 
HETATM   31  C23 UNL     1      26.689   0.391  54.511  1.00  0.00     0.071 A 
ENDBRANCH  23  25
ENDBRANCH   1  23
TORSDOF 2
ENDMDL
MODEL 4
REMARK VINA RESULT:      -9.2      2.027      4.851
REMARK  2 active torsions:
REMARK  status: ('A' for Active; 'I' for Inactive)
REMARK    1  A    between atoms: C5_6  and  N1_7 
REMARK    2  A    between atoms: N1_7  and  C6_8 
ROOT
HETATM    1  C6  UNL     1      25.785   2.686  51.042  1.00  0.00     0.162 A 
HETATM    2  N2  UNL     1      24.824   2.362  51.880  1.00  0.00    -0.256 NA
HETATM    3  C7  UNL     1      23.692   2.907  52.260  1.00  0.00     0.180 A 
HETATM    4  N3  UNL     1      24.101   3.818  51.397  1.00  0.00    -0.405 NA
HETATM    5  C8  UNL     1      25.179   3.801  50.706  1.00  0.00     0.339 A 
HETATM    6  C9  UNL     1      26.382   3.536  50.096  1.00  0.00     0.069 A 
HETATM    7  C10 UNL     1      26.370   4.738  49.289  1.00  0.00    -0.011 C 
HETATM    8  C11 UNL     1      25.940   6.010  49.428  1.00  0.00    -0.004 C 
HETATM    9  C12 UNL     1      26.090   7.000  48.381  1.00  0.00     0.194 C 
HETATM   10  O1  UNL     1      25.036   7.625  47.834  1.00  0.00    -0.387 OA
HETATM   11  C13 UNL     1      24.018   7.000  47.218  1.00  0.00     0.168 C 
HETATM   12  C14 UNL     1      23.178   6.200  48.175  1.00  0.00     0.026 C 
HETATM   13  C15 UNL     1      22.458   7.084  49.179  1.00  0.00     0.004 C 
HETATM   14  C16 UNL     1      21.789   6.291  50.272  1.00  0.00     0.020 C 
HETATM   15  C17 UNL     1      20.856   5.231  49.788  1.00  0.00     0.123 C 
HETATM   16  N4  UNL     1      20.410   4.333  50.860  1.00  0.00    -0.380 N 
HETATM   17  C18 UNL     1      19.459   3.666  51.707  1.00  0.00     0.149 C 
HETATM   18  C19 UNL     1      19.873   2.185  51.631  1.00  0.00     0.187 C 
HETATM   19  O2  UNL     1      20.588   1.941  50.428  1.00  0.00    -0.384 OA
HETATM   20  C20 UNL     1      21.817   2.620  50.441  1.00  0.00     0.224 C 
HETATM   21  C21 UNL     1      21.609   3.763  51.378  1.00  0.00     0.031 C 
HETATM   22  C22 UNL     1      22.582   3.892  52.313  1.00  0.00     0.058 C 
ENDROOT
BRANCH   1  23
HETATM   23  N1  UNL     1      26.717   1.582  51.149  1.00  0.00    -0.360 N 
HETATM   24  H4  UNL     1      27.030   0.899  50.393  1.00  0.00     0.162 HD
BRANCH  23  25
HETATM   25  C5  UNL     1      27.415   1.184  52.306  1.00  0.00     0.033 A 
HETATM   26  C4  UNL     1      27.364  -0.092  52.870  1.00  0.00     0.029 A 
HETATM   27  C3  UNL     1      28.034  -0.536  53.983  1.00  0.00     0.005 A 
HETATM   28  C2  UNL     1      28.843   0.393  54.599  1.00  0.00     0.042 A 
HETATM   29  C1  UNL     1      28.965   1.683  54.122  1.00  0.00     0.118 A 
HETATM   30  F1  UNL     1      29.787   2.474  54.824  1.00  0.00    -0.206 F 
HETATM   31  C23 UNL     1      28.252   2.028  53.002  1.00  0.00     0.071 A 
ENDBRANCH  23  25
ENDBRANCH   1  23
TORSDOF 2
ENDMDL
MODEL 5
REMARK VINA RESULT:      -9.0      2.006      4.609
REMARK  2 active torsions:
REMARK  status: ('A' for Active; 'I' for Inactive)
REMARK    1  A    between atoms: C5_6  and  N1_7 
REMARK    2  A    between atoms: N1_7  and  C6_8 
ROOT
HETATM    1  C6  UNL     1      25.302   2.937  51.510  1.00  0.00     0.162 A 
HETATM    2  N2  UNL     1      24.822   2.490  52.651  1.00  0.00    -0.256 NA
HETATM    3  C7  UNL     1      23.625   2.264  53.138  1.00  0.00     0.180 A 
HETATM    4  N3  UNL     1      23.300   2.705  51.937  1.00  0.00    -0.405 NA
HETATM    5  C8  UNL     1      24.097   3.083  51.009  1.00  0.00     0.339 A 
HETATM    6  C9  UNL     1      25.156   3.424  50.202  1.00  0.00     0.069 A 
HETATM    7  C10 UNL     1      24.326   3.799  49.075  1.00  0.00    -0.011 C 
HETATM    8  C11 UNL     1      23.116   4.368  48.893  1.00  0.00    -0.004 C 
HETATM    9  C12 UNL     1      22.560   4.608  47.577  1.00  0.00     0.194 C 
HETATM   10  O1  UNL     1      21.396   4.068  47.185  1.00  0.00    -0.387 OA
HETATM   11  C13 UNL     1      21.146   2.748  47.146  1.00  0.00     0.168 C 
HETATM   12  C14 UNL     1      21.085   2.138  48.519  1.00  0.00     0.026 C 
HETATM   13  C15 UNL     1      19.912   2.667  49.327  1.00  0.00     0.004 C 
HETATM   14  C16 UNL     1      19.962   2.234  50.769  1.00  0.00     0.020 C 
HETATM   15  C17 UNL     1      20.076   0.759  50.971  1.00  0.00     0.123 C 
HETATM   16  N4  UNL     1      20.357   0.395  52.365  1.00  0.00    -0.380 N 
HETATM   17  C18 UNL     1      20.128  -0.252  53.628  1.00  0.00     0.149 C 
HETATM   18  C19 UNL     1      21.473  -0.933  53.941  1.00  0.00     0.187 C 
HETATM   19  O2  UNL     1      22.196  -1.160  52.740  1.00  0.00    -0.384 OA
HETATM   20  C20 UNL     1      22.579   0.061  52.160  1.00  0.00     0.224 C 
HETATM   21  C21 UNL     1      21.585   1.051  52.669  1.00  0.00     0.031 C 
HETATM   22  C22 UNL     1      22.143   2.178  53.176  1.00  0.00     0.058 C 
ENDROOT
BRANCH   1  23
HETATM   23  N1  UNL     1      26.736   2.906  51.708  1.00  0.00    -0.360 N 
HETATM   24  H4  UNL     1      27.478   3.559  51.310  1.00  0.00     0.162 HD
BRANCH  23  25
HETATM   25  C5  UNL     1      27.454   1.982  52.493  1.00  0.00     0.033 A 
HETATM   26  C4  UNL     1      28.386   2.323  53.474  1.00  0.00     0.029 A 
HETATM   27  C3  UNL     1      29.100   1.466  54.276  1.00  0.00     0.005 A 
HETATM   28  C2  UNL     1      28.857   0.125  54.077  1.00  0.00     0.042 A 
HETATM   29  C1  UNL     1      27.954  -0.319  53.131  1.00  0.00     0.118 A 
HETATM   30  F1  UNL     1      27.822  -1.649  53.050  1.00  0.00    -0.206 F 
HETATM   31  C23 UNL     1      27.291   0.619  52.380  1.00  0.00     0.071 A 
ENDBRANCH  23  25
ENDBRANCH   1  23
TORSDOF 2
ENDMDL
MODEL 6
REMARK VINA RESULT:      -9.0      3.433      5.399
REMARK  2 active torsions:
REMARK  status: ('A' for Active; 'I' for Inactive)
REMARK    1  A    between atoms: C5_6  and  N1_7 
REMARK    2  A    between atoms: N1_7  and  C6_8 
ROOT
HETATM    1  C6  UNL     1      24.531   2.513  50.695  1.00  0.00     0.162 A 
HETATM    2  N2  UNL     1      23.924   2.793  49.561  1.00  0.00    -0.256 NA
HETATM    3  C7  UNL     1      22.783   2.462  49.004  1.00  0.00     0.180 A 
HETATM    4  N3  UNL     1      22.684   1.789  50.135  1.00  0.00    -0.405 NA
HETATM    5  C8  UNL     1      23.540   1.746  51.087  1.00  0.00     0.339 A 
HETATM    6  C9  UNL     1      24.607   1.874  51.943  1.00  0.00     0.069 A 
HETATM    7  C10 UNL     1      24.038   1.023  52.968  1.00  0.00    -0.011 C 
HETATM    8  C11 UNL     1      23.259  -0.079  53.007  1.00  0.00    -0.004 C 
HETATM    9  C12 UNL     1      22.857  -0.701  54.252  1.00  0.00     0.194 C 
HETATM   10  O1  UNL     1      21.567  -0.841  54.596  1.00  0.00    -0.387 OA
HETATM   11  C13 UNL     1      20.701   0.178  54.725  1.00  0.00     0.168 C 
HETATM   12  C14 UNL     1      20.386   0.829  53.406  1.00  0.00     0.026 C 
HETATM   13  C15 UNL     1      19.646  -0.110  52.469  1.00  0.00     0.004 C 
HETATM   14  C16 UNL     1      19.515   0.449  51.076  1.00  0.00     0.020 C 
HETATM   15  C17 UNL     1      18.896   1.806  51.007  1.00  0.00     0.123 C 
HETATM   16  N4  UNL     1      19.000   2.412  49.674  1.00  0.00    -0.380 N 
HETATM   17  C18 UNL     1      18.516   3.001  48.456  1.00  0.00     0.149 C 
HETATM   18  C19 UNL     1      19.362   4.280  48.305  1.00  0.00     0.187 C 
HETATM   19  O2  UNL     1      19.848   4.694  49.573  1.00  0.00    -0.384 OA
HETATM   20  C20 UNL     1      20.765   3.757  50.077  1.00  0.00     0.224 C 
HETATM   21  C21 UNL     1      20.399   2.472  49.412  1.00  0.00     0.031 C 
HETATM   22  C22 UNL     1      21.451   1.821  48.858  1.00  0.00     0.058 C 
ENDROOT
BRANCH   1  23
HETATM   23  N1  UNL     1      25.770   3.258  50.611  1.00  0.00    -0.360 N 
HETATM   24  H4  UNL     1      26.728   3.004  51.005  1.00  0.00     0.162 HD
BRANCH  23  25
HETATM   25  C5  UNL     1      25.960   4.499  49.972  1.00  0.00     0.033 A 
HETATM   26  C4  UNL     1      25.166   5.629  50.172  1.00  0.00     0.029 A 
HETATM   27  C3  UNL     1      25.317   6.864  49.589  1.00  0.00     0.005 A 
HETATM   28  C2  UNL     1      26.373   6.982  48.713  1.00  0.00     0.042 A 
HETATM   29  C1  UNL     1      27.219   5.924  48.445  1.00  0.00     0.118 A 
HETATM   30  F1  UNL     1      28.201   6.188  47.573  1.00  0.00    -0.206 F 
HETATM   31  C23 UNL     1      26.983   4.731  49.080  1.00  0.00     0.071 A 
ENDBRANCH  23  25
ENDBRANCH   1  23
TORSDOF 2
ENDMDL
MODEL 7
REMARK VINA RESULT:      -8.9      2.967      5.867
REMARK  2 active torsions:
REMARK  status: ('A' for Active; 'I' for Inactive)
REMARK    1  A    between atoms: C5_6  and  N1_7 
REMARK    2  A    between atoms: N1_7  and  C6_8 
ROOT
HETATM    1  C6  UNL     1      26.007   3.871  50.083  1.00  0.00     0.162 A 
HETATM    2  N2  UNL     1      24.933   4.074  50.815  1.00  0.00    -0.256 NA
HETATM    3  C7  UNL     1      24.160   5.102  51.077  1.00  0.00     0.180 A 
HETATM    4  N3  UNL     1      25.028   5.675  50.265  1.00  0.00    -0.405 NA
HETATM    5  C8  UNL     1      26.031   5.124  49.690  1.00  0.00     0.339 A 
HETATM    6  C9  UNL     1      27.019   4.298  49.208  1.00  0.00     0.069 A 
HETATM    7  C10 UNL     1      27.650   5.328  48.408  1.00  0.00    -0.011 C 
HETATM    8  C11 UNL     1      27.858   6.658  48.507  1.00  0.00    -0.004 C 
HETATM    9  C12 UNL     1      28.553   7.413  47.484  1.00  0.00     0.194 C 
HETATM   10  O1  UNL     1      27.974   8.433  46.833  1.00  0.00    -0.387 OA
HETATM   11  C13 UNL     1      26.845   8.330  46.112  1.00  0.00     0.168 C 
HETATM   12  C14 UNL     1      25.641   8.062  46.973  1.00  0.00     0.026 C 
HETATM   13  C15 UNL     1      25.331   9.225  47.900  1.00  0.00     0.004 C 
HETATM   14  C16 UNL     1      24.269   8.888  48.914  1.00  0.00     0.020 C 
HETATM   15  C17 UNL     1      22.997   8.368  48.331  1.00  0.00     0.123 C 
HETATM   16  N4  UNL     1      22.082   7.833  49.347  1.00  0.00    -0.380 N 
HETATM   17  C18 UNL     1      20.855   7.729  50.089  1.00  0.00     0.149 C 
HETATM   18  C19 UNL     1      20.529   6.224  50.050  1.00  0.00     0.187 C 
HETATM   19  O2  UNL     1      21.154   5.619  48.928  1.00  0.00    -0.384 OA
HETATM   20  C20 UNL     1      22.551   5.644  49.072  1.00  0.00     0.224 C 
HETATM   21  C21 UNL     1      22.818   6.793  49.986  1.00  0.00     0.031 C 
HETATM   22  C22 UNL     1      23.644   6.494  51.018  1.00  0.00     0.058 C 
ENDROOT
BRANCH   1  23
HETATM   23  N1  UNL     1      26.294   2.466  50.283  1.00  0.00    -0.360 N 
HETATM   24  H4  UNL     1      26.246   1.669  49.577  1.00  0.00     0.162 HD
BRANCH  23  25
HETATM   25  C5  UNL     1      26.711   1.858  51.484  1.00  0.00     0.033 A 
HETATM   26  C4  UNL     1      26.250   0.628  51.956  1.00  0.00     0.029 A 
HETATM   27  C3  UNL     1      26.633  -0.016  53.108  1.00  0.00     0.005 A 
HETATM   28  C2  UNL     1      27.576   0.638  53.869  1.00  0.00     0.042 A 
HETATM   29  C1  UNL     1      28.097   1.861  53.491  1.00  0.00     0.118 A 
HETATM   30  F1  UNL     1      29.005   2.376  54.329  1.00  0.00    -0.206 F 
HETATM   31  C23 UNL     1      27.648   2.420  52.321  1.00  0.00     0.071 A 
ENDBRANCH  23  25
ENDBRANCH   1  23
TORSDOF 2
ENDMDL
MODEL 8
REMARK VINA RESULT:      -8.8      4.208      7.550
REMARK  2 active torsions:
REMARK  status: ('A' for Active; 'I' for Inactive)
REMARK    1  A    between atoms: C5_6  and  N1_7 
REMARK    2  A    between atoms: N1_7  and  C6_8 
ROOT
HETATM    1  C6  UNL     1      19.933  -0.244  53.449  1.00  0.00     0.162 A 
HETATM    2  N2  UNL     1      19.604   0.887  52.864  1.00  0.00    -0.256 NA
HETATM    3  C7  UNL     1      20.229   2.000  52.558  1.00  0.00     0.180 A 
HETATM    4  N3  UNL     1      21.218   1.334  53.127  1.00  0.00    -0.405 NA
HETATM    5  C8  UNL     1      21.172   0.156  53.625  1.00  0.00     0.339 A 
HETATM    6  C9  UNL     1      20.850  -1.101  54.079  1.00  0.00     0.069 A 
HETATM    7  C10 UNL     1      22.184  -1.395  54.562  1.00  0.00    -0.011 C 
HETATM    8  C11 UNL     1      23.199  -0.705  55.123  1.00  0.00    -0.004 C 
HETATM    9  C12 UNL     1      24.450  -1.331  55.499  1.00  0.00     0.194 C 
HETATM   10  O1  UNL     1      25.626  -0.943  54.983  1.00  0.00    -0.387 OA
HETATM   11  C13 UNL     1      25.918  -0.949  53.671  1.00  0.00     0.168 C 
HETATM   12  C14 UNL     1      25.127   0.078  52.907  1.00  0.00     0.026 C 
HETATM   13  C15 UNL     1      25.487   1.496  53.315  1.00  0.00     0.004 C 
HETATM   14  C16 UNL     1      24.557   2.522  52.721  1.00  0.00     0.020 C 
HETATM   15  C17 UNL     1      24.425   2.453  51.235  1.00  0.00     0.123 C 
HETATM   16  N4  UNL     1      23.343   3.301  50.720  1.00  0.00    -0.380 N 
HETATM   17  C18 UNL     1      22.755   4.346  49.928  1.00  0.00     0.149 C 
HETATM   18  C19 UNL     1      21.558   3.659  49.244  1.00  0.00     0.187 C 
HETATM   19  O2  UNL     1      21.777   2.258  49.172  1.00  0.00    -0.384 OA
HETATM   20  C20 UNL     1      21.781   1.695  50.459  1.00  0.00     0.224 C 
HETATM   21  C21 UNL     1      22.167   2.818  51.363  1.00  0.00     0.031 C 
HETATM   22  C22 UNL     1      21.352   2.964  52.436  1.00  0.00     0.058 C 
ENDROOT
BRANCH   1  23
HETATM   23  N1  UNL     1      18.704  -1.010  53.425  1.00  0.00    -0.360 N 
HETATM   24  H4  UNL     1      18.356  -1.732  54.128  1.00  0.00     0.162 HD
BRANCH  23  25
HETATM   25  C5  UNL     1      17.696  -0.948  52.443  1.00  0.00     0.033 A 
HETATM   26  C4  UNL     1      17.861  -0.414  51.164  1.00  0.00     0.029 A 
HETATM   27  C3  UNL     1      16.919  -0.343  50.166  1.00  0.00     0.005 A 
HETATM   28  C2  UNL     1      15.682  -0.861  50.479  1.00  0.00     0.042 A 
HETATM   29  C1  UNL     1      15.415  -1.412  51.717  1.00  0.00     0.118 A 
HETATM   30  F1  UNL     1      14.168  -1.875  51.877  1.00  0.00    -0.206 F 
HETATM   31  C23 UNL     1      16.424  -1.435  52.646  1.00  0.00     0.071 A 
ENDBRANCH  23  25
ENDBRANCH   1  23
TORSDOF 2
ENDMDL
MODEL 9
REMARK VINA RESULT:      -8.7      2.532      5.891
REMARK  2 active torsions:
REMARK  status: ('A' for Active; 'I' for Inactive)
REMARK    1  A    between atoms: C5_6  and  N1_7 
REMARK    2  A    between atoms: N1_7  and  C6_8 
ROOT
HETATM    1  C6  UNL     1      23.107   4.672  50.740  1.00  0.00     0.162 A 
HETATM    2  N2  UNL     1      24.184   4.483  51.471  1.00  0.00    -0.256 NA
HETATM    3  C7  UNL     1      24.504   3.708  52.481  1.00  0.00     0.180 A 
HETATM    4  N3  UNL     1      23.254   3.328  52.294  1.00  0.00    -0.405 NA
HETATM    5  C8  UNL     1      22.435   3.767  51.413  1.00  0.00     0.339 A 
HETATM    6  C9  UNL     1      21.774   4.403  50.390  1.00  0.00     0.069 A 
HETATM    7  C10 UNL     1      20.540   3.666  50.573  1.00  0.00    -0.011 C 
HETATM    8  C11 UNL     1      19.853   3.146  51.612  1.00  0.00    -0.004 C 
HETATM    9  C12 UNL     1      18.600   2.438  51.438  1.00  0.00     0.194 C 
HETATM   10  O1  UNL     1      18.442   1.163  51.822  1.00  0.00    -0.387 OA
HETATM   11  C13 UNL     1      19.184   0.137  51.372  1.00  0.00     0.168 C 
HETATM   12  C14 UNL     1      20.609   0.212  51.849  1.00  0.00     0.026 C 
HETATM   13  C15 UNL     1      20.716   0.054  53.356  1.00  0.00     0.004 C 
HETATM   14  C16 UNL     1      22.102   0.342  53.870  1.00  0.00     0.020 C 
HETATM   15  C17 UNL     1      23.185  -0.449  53.212  1.00  0.00     0.123 C 
HETATM   16  N4  UNL     1      24.529   0.022  53.566  1.00  0.00    -0.380 N 
HETATM   17  C18 UNL     1      25.864  -0.082  54.089  1.00  0.00     0.149 C 
HETATM   18  C19 UNL     1      26.744   0.508  52.970  1.00  0.00     0.187 C 
HETATM   19  O2  UNL     1      26.074   0.409  51.722  1.00  0.00    -0.384 OA
HETATM   20  C20 UNL     1      24.938   1.234  51.708  1.00  0.00     0.224 C 
HETATM   21  C21 UNL     1      24.559   1.383  53.144  1.00  0.00     0.031 C 
HETATM   22  C22 UNL     1      24.346   2.666  53.527  1.00  0.00     0.058 C 
ENDROOT
BRANCH   1  23
HETATM   23  N1  UNL     1      23.511   5.695  49.797  1.00  0.00    -0.360 N 
HETATM   24  H4  UNL     1      22.905   6.408  49.286  1.00  0.00     0.162 HD
BRANCH  23  25
HETATM   25  C5  UNL     1      24.824   5.959  49.359  1.00  0.00     0.033 A 
HETATM   26  C4  UNL     1      25.353   7.233  49.147  1.00  0.00     0.029 A 
HETATM   27  C3  UNL     1      26.626   7.547  48.737  1.00  0.00     0.005 A 
HETATM   28  C2  UNL     1      27.460   6.473  48.516  1.00  0.00     0.042 A 
HETATM   29  C1  UNL     1      27.035   5.171  48.696  1.00  0.00     0.118 A 
HETATM   30  F1  UNL     1      27.956   4.232  48.442  1.00  0.00    -0.206 F 
HETATM   31  C23 UNL     1      25.743   4.964  49.108  1.00  0.00     0.071 A 
ENDBRANCH  23  25
ENDBRANCH   1  23
TORSDOF 2
ENDMDL
