MODEL 1
REMARK VINA RESULT:      -8.2      0.000      0.000
REMARK  6 active torsions:
REMARK  status: ('A' for Active; 'I' for Inactive)
REMARK    1  A    between atoms: N1_2  and  C3_4 
REMARK    2  A    between atoms: C3_4  and  C4_5 
REMARK    3  A    between atoms: C5_6  and  C6_7 
REMARK       I    between atoms: C6_7  and  N2_9 
REMARK    4  A    between atoms: N2_9  and  C7_10 
REMARK    5  A    between atoms: C12_17  and  N5_18 
REMARK    6  A    between atoms: N5_18  and  C13_19 
ROOT
HETATM    1  C7  UNL     1      23.972   3.008  49.482  1.00  0.00     0.036 A 
HETATM    2  C8  UNL     1      23.024   2.757  48.479  1.00  0.00     0.032 A 
HETATM    3  C9  UNL     1      21.942   1.961  48.793  1.00  0.00     0.035 A 
HETATM    4  C10 UNL     1      21.784   1.419  50.056  1.00  0.00     0.072 A 
HETATM    5  N3  UNL     1      20.727   0.645  50.353  1.00  0.00    -0.241 NA
HETATM    6  C11 UNL     1      20.612   0.135  51.601  1.00  0.00     0.236 A 
HETATM    7  N4  UNL     1      21.501   0.347  52.609  1.00  0.00    -0.224 NA
HETATM    8  C12 UNL     1      22.561   1.121  52.318  1.00  0.00     0.142 A 
HETATM    9  C19 UNL     1      22.703   1.650  51.063  1.00  0.00     0.041 A 
HETATM   10  C20 UNL     1      23.772   2.445  50.727  1.00  0.00     0.047 A 
ENDROOT
BRANCH   1  11
HETATM   11  N2  UNL     1      25.095   3.828  49.170  1.00  0.00    -0.316 N 
HETATM   12  C6  UNL     1      26.451   3.963  49.565  1.00  0.00     0.301 C 
HETATM   13  O1  UNL     1      27.077   3.285  50.417  1.00  0.00    -0.258 OA
HETATM   14  H9  UNL     1      24.667   4.446  48.447  1.00  0.00     0.170 HD
BRANCH  12  15
HETATM   15  C5  UNL     1      27.189   5.017  48.892  1.00  0.00    -0.004 C 
HETATM   16  C4  UNL     1      27.799   5.890  48.314  1.00  0.00    -0.066 C 
BRANCH  16  17
HETATM   17  C3  UNL     1      28.539   6.958  47.632  1.00  0.00     0.365 C 
BRANCH  17  18
HETATM   18  N1  UNL     1      29.837   7.013  48.269  1.00  0.00     0.090 N 
HETATM   19  C1  UNL     1      30.904   6.794  47.342  1.00  0.00     0.310 C 
HETATM   20  C2  UNL     1      29.959   8.333  48.874  1.00  0.00     0.310 C 
ENDBRANCH  17  18
ENDBRANCH  16  17
ENDBRANCH  12  15
ENDBRANCH   1  11
BRANCH   8  21
HETATM   21  N5  UNL     1      23.492   1.354  53.336  1.00  0.00    -0.339 N 
HETATM   22  H13 UNL     1      23.454   1.981  54.165  1.00  0.00     0.167 HD
BRANCH  21  23
HETATM   23  C13 UNL     1      24.749   0.741  53.445  1.00  0.00     0.045 C 
HETATM   24  C14 UNL     1      25.059  -0.525  53.353  1.00  0.00    -0.001 C 
HETATM   25  C15 UNL     1      26.097  -0.903  52.699  1.00  0.00    -0.007 C 
HETATM   26  C16 UNL     1      27.367  -0.132  52.620  1.00  0.00     0.074 C 
HETATM   27  C17 UNL     1      27.141   1.182  53.310  1.00  0.00    -0.006 C 
HETATM   28 BR1  UNL     1      28.645   2.308  53.651  1.00  0.00    -0.055 Br
HETATM   29  C18 UNL     1      25.925   1.594  53.697  1.00  0.00     0.045 C 
ENDBRANCH  21  23
ENDBRANCH   8  21
TORSDOF 6
ENDMDL
MODEL 2
REMARK VINA RESULT:      -8.0      2.868      4.937
REMARK  6 active torsions:
REMARK  status: ('A' for Active; 'I' for Inactive)
REMARK    1  A    between atoms: N1_2  and  C3_4 
REMARK    2  A    between atoms: C3_4  and  C4_5 
REMARK    3  A    between atoms: C5_6  and  C6_7 
REMARK       I    between atoms: C6_7  and  N2_9 
REMARK    4  A    between atoms: N2_9  and  C7_10 
REMARK    5  A    between atoms: C12_17  and  N5_18 
REMARK    6  A    between atoms: N5_18  and  C13_19 
ROOT
HETATM    1  C7  UNL     1      26.645   2.196  52.098  1.00  0.00     0.036 A 
HETATM    2  C8  UNL     1      27.611   1.940  53.083  1.00  0.00     0.032 A 
HETATM    3  C9  UNL     1      27.295   1.045  54.084  1.00  0.00     0.035 A 
HETATM    4  C10 UNL     1      26.065   0.412  54.128  1.00  0.00     0.072 A 
HETATM    5  N3  UNL     1      25.767  -0.458  55.107  1.00  0.00    -0.241 NA
HETATM    6  C11 UNL     1      24.553  -1.054  55.113  1.00  0.00     0.236 A 
HETATM    7  N4  UNL     1      23.582  -0.842  54.183  1.00  0.00    -0.224 NA
HETATM    8  C12 UNL     1      23.875   0.027  53.200  1.00  0.00     0.142 A 
HETATM    9  C19 UNL     1      25.096   0.645  53.171  1.00  0.00     0.041 A 
HETATM   10  C20 UNL     1      25.434   1.540  52.184  1.00  0.00     0.047 A 
ENDROOT
BRANCH   1  11
HETATM   11  N2  UNL     1      26.959   3.119  51.059  1.00  0.00    -0.316 N 
HETATM   12  C6  UNL     1      26.388   3.584  49.846  1.00  0.00     0.301 C 
HETATM   13  O1  UNL     1      25.300   3.236  49.323  1.00  0.00    -0.258 OA
HETATM   14  H9  UNL     1      27.875   3.474  51.408  1.00  0.00     0.170 HD
BRANCH  12  15
HETATM   15  C5  UNL     1      27.168   4.583  49.138  1.00  0.00    -0.004 C 
HETATM   16  C4  UNL     1      27.834   5.407  48.551  1.00  0.00    -0.066 C 
BRANCH  16  17
HETATM   17  C3  UNL     1      28.625   6.412  47.831  1.00  0.00     0.365 C 
BRANCH  17  18
HETATM   18  N1  UNL     1      29.941   6.390  48.432  1.00  0.00     0.090 N 
HETATM   19  C1  UNL     1      30.794   5.412  47.830  1.00  0.00     0.310 C 
HETATM   20  C2  UNL     1      30.508   7.722  48.267  1.00  0.00     0.310 C 
ENDBRANCH  17  18
ENDBRANCH  16  17
ENDBRANCH  12  15
ENDBRANCH   1  11
BRANCH   8  21
HETATM   21  N5  UNL     1      22.894   0.264  52.231  1.00  0.00    -0.339 N 
HETATM   22  H13 UNL     1      22.887   0.081  51.208  1.00  0.00     0.167 HD
BRANCH  21  23
HETATM   23  C13 UNL     1      21.636   0.837  52.472  1.00  0.00     0.045 C 
HETATM   24  C14 UNL     1      21.321   2.094  52.636  1.00  0.00    -0.001 C 
HETATM   25  C15 UNL     1      20.275   2.589  52.079  1.00  0.00    -0.007 C 
HETATM   26  C16 UNL     1      19.007   1.843  51.862  1.00  0.00     0.074 C 
HETATM   27  C17 UNL     1      19.244   0.420  52.276  1.00  0.00    -0.006 C 
HETATM   28 BR1  UNL     1      17.747  -0.760  52.401  1.00  0.00    -0.055 Br
HETATM   29  C18 UNL     1      20.465  -0.055  52.561  1.00  0.00     0.045 C 
ENDBRANCH  21  23
ENDBRANCH   8  21
TORSDOF 6
ENDMDL
MODEL 3
REMARK VINA RESULT:      -7.9      1.790      2.399
REMARK  6 active torsions:
REMARK  status: ('A' for Active; 'I' for Inactive)
REMARK    1  A    between atoms: N1_2  and  C3_4 
REMARK    2  A    between atoms: C3_4  and  C4_5 
REMARK    3  A    between atoms: C5_6  and  C6_7 
REMARK       I    between atoms: C6_7  and  N2_9 
REMARK    4  A    between atoms: N2_9  and  C7_10 
REMARK    5  A    between atoms: C12_17  and  N5_18 
REMARK    6  A    between atoms: N5_18  and  C13_19 
ROOT
HETATM    1  C7  UNL     1      24.539   3.637  50.009  1.00  0.00     0.036 A 
HETATM    2  C8  UNL     1      23.418   3.212  49.280  1.00  0.00     0.032 A 
HETATM    3  C9  UNL     1      22.657   2.185  49.801  1.00  0.00     0.035 A 
HETATM    4  C10 UNL     1      22.979   1.584  51.005  1.00  0.00     0.072 A 
HETATM    5  N3  UNL     1      22.232   0.586  51.505  1.00  0.00    -0.241 NA
HETATM    6  C11 UNL     1      22.583   0.025  52.685  1.00  0.00     0.236 A 
HETATM    7  N4  UNL     1      23.659   0.400  53.430  1.00  0.00    -0.224 NA
HETATM    8  C12 UNL     1      24.410   1.399  52.936  1.00  0.00     0.142 A 
HETATM    9  C19 UNL     1      24.078   1.983  51.743  1.00  0.00     0.041 A 
HETATM   10  C20 UNL     1      24.820   3.007  51.204  1.00  0.00     0.047 A 
ENDROOT
BRANCH   1  11
HETATM   11  N2  UNL     1      25.333   4.696  49.481  1.00  0.00    -0.316 N 
HETATM   12  C6  UNL     1      26.657   4.893  49.008  1.00  0.00     0.301 C 
HETATM   13  O1  UNL     1      27.582   4.048  48.933  1.00  0.00    -0.258 OA
HETATM   14  H9  UNL     1      24.634   5.469  49.502  1.00  0.00     0.170 HD
BRANCH  12  15
HETATM   15  C5  UNL     1      26.958   6.241  48.560  1.00  0.00    -0.004 C 
HETATM   16  C4  UNL     1      27.225   7.359  48.178  1.00  0.00    -0.066 C 
BRANCH  16  17
HETATM   17  C3  UNL     1      27.528   8.720  47.719  1.00  0.00     0.365 C 
BRANCH  17  18
HETATM   18  N1  UNL     1      27.866   9.475  48.907  1.00  0.00     0.090 N 
HETATM   19  C1  UNL     1      29.219   9.259  49.318  1.00  0.00     0.310 C 
HETATM   20  C2  UNL     1      27.654  10.882  48.593  1.00  0.00     0.310 C 
ENDBRANCH  17  18
ENDBRANCH  16  17
ENDBRANCH  12  15
ENDBRANCH   1  11
BRANCH   8  21
HETATM   21  N5  UNL     1      25.522   1.803  53.682  1.00  0.00    -0.339 N 
HETATM   22  H13 UNL     1      25.595   2.400  54.531  1.00  0.00     0.167 HD
BRANCH  21  23
HETATM   23  C13 UNL     1      26.853   1.456  53.409  1.00  0.00     0.045 C 
HETATM   24  C14 UNL     1      27.909   2.222  53.347  1.00  0.00    -0.001 C 
HETATM   25  C15 UNL     1      29.022   1.855  53.872  1.00  0.00    -0.007 C 
HETATM   26  C16 UNL     1      29.503   0.448  53.923  1.00  0.00     0.074 C 
HETATM   27  C17 UNL     1      28.403  -0.424  53.390  1.00  0.00    -0.006 C 
HETATM   28 BR1  UNL     1      28.780  -2.264  53.041  1.00  0.00    -0.055 Br
HETATM   29  C18 UNL     1      27.168   0.039  53.148  1.00  0.00     0.045 C 
ENDBRANCH  21  23
ENDBRANCH   8  21
TORSDOF 6
ENDMDL
MODEL 4
REMARK VINA RESULT:      -7.9      3.726      9.067
REMARK  6 active torsions:
REMARK  status: ('A' for Active; 'I' for Inactive)
REMARK    1  A    between atoms: N1_2  and  C3_4 
REMARK    2  A    between atoms: C3_4  and  C4_5 
REMARK    3  A    between atoms: C5_6  and  C6_7 
REMARK       I    between atoms: C6_7  and  N2_9 
REMARK    4  A    between atoms: N2_9  and  C7_10 
REMARK    5  A    between atoms: C12_17  and  N5_18 
REMARK    6  A    between atoms: N5_18  and  C13_19 
ROOT
HETATM    1  C7  UNL     1      22.646  -0.761  54.110  1.00  0.00     0.036 A 
HETATM    2  C8  UNL     1      23.070  -1.312  55.329  1.00  0.00     0.032 A 
HETATM    3  C9  UNL     1      24.407  -1.212  55.656  1.00  0.00     0.035 A 
HETATM    4  C10 UNL     1      25.313  -0.590  54.816  1.00  0.00     0.072 A 
HETATM    5  N3  UNL     1      26.613  -0.498  55.143  1.00  0.00    -0.241 NA
HETATM    6  C11 UNL     1      27.466   0.118  54.293  1.00  0.00     0.236 A 
HETATM    7  N4  UNL     1      27.107   0.668  53.101  1.00  0.00    -0.224 NA
HETATM    8  C12 UNL     1      25.808   0.579  52.768  1.00  0.00     0.142 A 
HETATM    9  C19 UNL     1      24.923  -0.039  53.610  1.00  0.00     0.041 A 
HETATM   10  C20 UNL     1      23.587  -0.150  53.306  1.00  0.00     0.047 A 
ENDROOT
BRANCH   1  11
HETATM   11  N2  UNL     1      21.268  -0.858  53.761  1.00  0.00    -0.316 N 
HETATM   12  C6  UNL     1      20.225  -0.005  53.317  1.00  0.00     0.301 C 
HETATM   13  O1  UNL     1      20.282   1.230  53.093  1.00  0.00    -0.258 OA
HETATM   14  H9  UNL     1      21.117  -1.878  53.918  1.00  0.00     0.170 HD
BRANCH  12  15
HETATM   15  C5  UNL     1      18.945  -0.655  53.100  1.00  0.00    -0.004 C 
HETATM   16  C4  UNL     1      17.870  -1.188  52.932  1.00  0.00    -0.066 C 
BRANCH  16  17
HETATM   17  C3  UNL     1      16.574  -1.839  52.710  1.00  0.00     0.365 C 
BRANCH  17  18
HETATM   18  N1  UNL     1      15.812  -0.935  51.875  1.00  0.00     0.090 N 
HETATM   19  C1  UNL     1      14.955  -1.631  50.966  1.00  0.00     0.310 C 
HETATM   20  C2  UNL     1      15.023  -0.095  52.767  1.00  0.00     0.310 C 
ENDBRANCH  17  18
ENDBRANCH  16  17
ENDBRANCH  12  15
ENDBRANCH   1  11
BRANCH   8  21
HETATM   21  N5  UNL     1      25.412   1.137  51.547  1.00  0.00    -0.339 N 
HETATM   22  H13 UNL     1      24.927   0.715  50.730  1.00  0.00     0.167 HD
BRANCH  21  23
HETATM   23  C13 UNL     1      25.609   2.471  51.161  1.00  0.00     0.045 C 
HETATM   24  C14 UNL     1      26.615   3.003  50.520  1.00  0.00    -0.001 C 
HETATM   25  C15 UNL     1      26.419   3.860  49.583  1.00  0.00    -0.007 C 
HETATM   26  C16 UNL     1      25.314   4.856  49.573  1.00  0.00     0.074 C 
HETATM   27  C17 UNL     1      24.436   4.566  50.755  1.00  0.00    -0.006 C 
HETATM   28 BR1  UNL     1      23.078   5.828  51.218  1.00  0.00    -0.055 Br
HETATM   29  C18 UNL     1      24.568   3.459  51.499  1.00  0.00     0.045 C 
ENDBRANCH  21  23
ENDBRANCH   8  21
TORSDOF 6
ENDMDL
MODEL 5
REMARK VINA RESULT:      -7.9      2.163      2.903
REMARK  6 active torsions:
REMARK  status: ('A' for Active; 'I' for Inactive)
REMARK    1  A    between atoms: N1_2  and  C3_4 
REMARK    2  A    between atoms: C3_4  and  C4_5 
REMARK    3  A    between atoms: C5_6  and  C6_7 
REMARK       I    between atoms: C6_7  and  N2_9 
REMARK    4  A    between atoms: N2_9  and  C7_10 
REMARK    5  A    between atoms: C12_17  and  N5_18 
REMARK    6  A    between atoms: N5_18  and  C13_19 
ROOT
HETATM    1  C7  UNL     1      26.072   4.312  49.561  1.00  0.00     0.036 A 
HETATM    2  C8  UNL     1      24.949   4.635  48.785  1.00  0.00     0.032 A 
HETATM    3  C9  UNL     1      23.704   4.291  49.271  1.00  0.00     0.035 A 
HETATM    4  C10 UNL     1      23.555   3.644  50.485  1.00  0.00     0.072 A 
HETATM    5  N3  UNL     1      22.338   3.313  50.950  1.00  0.00    -0.241 NA
HETATM    6  C11 UNL     1      22.237   2.681  52.142  1.00  0.00     0.236 A 
HETATM    7  N4  UNL     1      23.293   2.345  52.932  1.00  0.00    -0.224 NA
HETATM    8  C12 UNL     1      24.513   2.675  52.473  1.00  0.00     0.142 A 
HETATM    9  C19 UNL     1      24.644   3.314  51.269  1.00  0.00     0.041 A 
HETATM   10  C20 UNL     1      25.873   3.668  50.765  1.00  0.00     0.047 A 
ENDROOT
BRANCH   1  11
HETATM   11  N2  UNL     1      27.363   4.663  49.069  1.00  0.00    -0.316 N 
HETATM   12  C6  UNL     1      27.975   5.733  48.367  1.00  0.00     0.301 C 
HETATM   13  O1  UNL     1      27.437   6.788  47.950  1.00  0.00    -0.258 OA
HETATM   14  H9  UNL     1      27.902   3.823  49.374  1.00  0.00     0.170 HD
BRANCH  12  15
HETATM   15  C5  UNL     1      29.395   5.573  48.111  1.00  0.00    -0.004 C 
HETATM   16  C4  UNL     1      30.582   5.457  47.899  1.00  0.00    -0.066 C 
BRANCH  16  17
HETATM   17  C3  UNL     1      32.019   5.296  47.647  1.00  0.00     0.365 C 
BRANCH  17  18
HETATM   18  N1  UNL     1      32.152   4.088  46.860  1.00  0.00     0.090 N 
HETATM   19  C1  UNL     1      32.830   4.320  45.623  1.00  0.00     0.310 C 
HETATM   20  C2  UNL     1      32.896   3.131  47.670  1.00  0.00     0.310 C 
ENDBRANCH  17  18
ENDBRANCH  16  17
ENDBRANCH  12  15
ENDBRANCH   1  11
BRANCH   8  21
HETATM   21  N5  UNL     1      25.616   2.341  53.266  1.00  0.00    -0.339 N 
HETATM   22  H13 UNL     1      26.252   2.935  53.835  1.00  0.00     0.167 HD
BRANCH  21  23
HETATM   23  C13 UNL     1      26.114   1.044  53.460  1.00  0.00     0.045 C 
HETATM   24  C14 UNL     1      25.469  -0.092  53.481  1.00  0.00    -0.001 C 
HETATM   25  C15 UNL     1      25.942  -1.129  52.890  1.00  0.00    -0.007 C 
HETATM   26  C16 UNL     1      27.390  -1.448  52.785  1.00  0.00     0.074 C 
HETATM   27  C17 UNL     1      28.151  -0.288  53.357  1.00  0.00    -0.006 C 
HETATM   28 BR1  UNL     1      30.029  -0.477  53.647  1.00  0.00    -0.055 Br
HETATM   29  C18 UNL     1      27.563   0.875  53.674  1.00  0.00     0.045 C 
ENDBRANCH  21  23
ENDBRANCH   8  21
TORSDOF 6
ENDMDL
MODEL 6
REMARK VINA RESULT:      -7.8      2.011      2.746
REMARK  6 active torsions:
REMARK  status: ('A' for Active; 'I' for Inactive)
REMARK    1  A    between atoms: N1_2  and  C3_4 
REMARK    2  A    between atoms: C3_4  and  C4_5 
REMARK    3  A    between atoms: C5_6  and  C6_7 
REMARK       I    between atoms: C6_7  and  N2_9 
REMARK    4  A    between atoms: N2_9  and  C7_10 
REMARK    5  A    between atoms: C12_17  and  N5_18 
REMARK    6  A    between atoms: N5_18  and  C13_19 
ROOT
HETATM    1  C7  UNL     1      25.636   4.268  49.682  1.00  0.00     0.036 A 
HETATM    2  C8  UNL     1      24.462   4.164  48.921  1.00  0.00     0.032 A 
HETATM    3  C9  UNL     1      23.390   3.493  49.471  1.00  0.00     0.035 A 
HETATM    4  C10 UNL     1      23.457   2.934  50.735  1.00  0.00     0.072 A 
HETATM    5  N3  UNL     1      22.407   2.282  51.263  1.00  0.00    -0.241 NA
HETATM    6  C11 UNL     1      22.516   1.749  52.502  1.00  0.00     0.236 A 
HETATM    7  N4  UNL     1      23.630   1.822  53.280  1.00  0.00    -0.224 NA
HETATM    8  C12 UNL     1      24.683   2.473  52.758  1.00  0.00     0.142 A 
HETATM    9  C19 UNL     1      24.601   3.021  51.506  1.00  0.00     0.041 A 
HETATM   10  C20 UNL     1      25.656   3.695  50.937  1.00  0.00     0.047 A 
ENDROOT
BRANCH   1  11
HETATM   11  N2  UNL     1      26.751   4.959  49.124  1.00  0.00    -0.316 N 
HETATM   12  C6  UNL     1      27.020   6.200  48.491  1.00  0.00     0.301 C 
HETATM   13  O1  UNL     1      26.211   7.125  48.235  1.00  0.00    -0.258 OA
HETATM   14  H9  UNL     1      27.499   4.251  49.292  1.00  0.00     0.170 HD
BRANCH  12  15
HETATM   15  C5  UNL     1      28.403   6.408  48.101  1.00  0.00    -0.004 C 
HETATM   16  C4  UNL     1      29.562   6.581  47.793  1.00  0.00    -0.066 C 
BRANCH  16  17
HETATM   17  C3  UNL     1      30.961   6.784  47.400  1.00  0.00     0.365 C 
BRANCH  17  18
HETATM   18  N1  UNL     1      31.689   5.645  47.918  1.00  0.00     0.090 N 
HETATM   19  C1  UNL     1      32.903   5.408  47.200  1.00  0.00     0.310 C 
HETATM   20  C2  UNL     1      31.979   5.925  49.318  1.00  0.00     0.310 C 
ENDBRANCH  17  18
ENDBRANCH  16  17
ENDBRANCH  12  15
ENDBRANCH   1  11
BRANCH   8  21
HETATM   21  N5  UNL     1      25.841   2.562  53.538  1.00  0.00    -0.339 N 
HETATM   22  H13 UNL     1      26.077   3.177  54.342  1.00  0.00     0.167 HD
BRANCH  21  23
HETATM   23  C13 UNL     1      26.994   1.779  53.373  1.00  0.00     0.045 C 
HETATM   24  C14 UNL     1      28.245   2.105  53.560  1.00  0.00    -0.001 C 
HETATM   25  C15 UNL     1      29.054   1.300  54.147  1.00  0.00    -0.007 C 
HETATM   26  C16 UNL     1      28.999  -0.182  54.029  1.00  0.00     0.074 C 
HETATM   27  C17 UNL     1      27.771  -0.526  53.237  1.00  0.00    -0.006 C 
HETATM   28 BR1  UNL     1      27.537  -2.327  52.646  1.00  0.00    -0.055 Br
HETATM   29  C18 UNL     1      26.834   0.382  52.927  1.00  0.00     0.045 C 
ENDBRANCH  21  23
ENDBRANCH   8  21
TORSDOF 6
ENDMDL
MODEL 7
REMARK VINA RESULT:      -7.8      2.530      3.808
REMARK  6 active torsions:
REMARK  status: ('A' for Active; 'I' for Inactive)
REMARK    1  A    between atoms: N1_2  and  C3_4 
REMARK    2  A    between atoms: C3_4  and  C4_5 
REMARK    3  A    between atoms: C5_6  and  C6_7 
REMARK       I    between atoms: C6_7  and  N2_9 
REMARK    4  A    between atoms: N2_9  and  C7_10 
REMARK    5  A    between atoms: C12_17  and  N5_18 
REMARK    6  A    between atoms: N5_18  and  C13_19 
ROOT
HETATM    1  C7  UNL     1      26.897   4.920  49.023  1.00  0.00     0.036 A 
HETATM    2  C8  UNL     1      25.984   5.937  48.703  1.00  0.00     0.032 A 
HETATM    3  C9  UNL     1      24.682   5.800  49.137  1.00  0.00     0.035 A 
HETATM    4  C10 UNL     1      24.274   4.697  49.866  1.00  0.00     0.072 A 
HETATM    5  N3  UNL     1      23.003   4.572  50.284  1.00  0.00    -0.241 NA
HETATM    6  C11 UNL     1      22.647   3.477  50.994  1.00  0.00     0.236 A 
HETATM    7  N4  UNL     1      23.491   2.464  51.330  1.00  0.00    -0.224 NA
HETATM    8  C12 UNL     1      24.764   2.583  50.915  1.00  0.00     0.142 A 
HETATM    9  C19 UNL     1      25.152   3.681  50.194  1.00  0.00     0.041 A 
HETATM   10  C20 UNL     1      26.444   3.840  49.752  1.00  0.00     0.047 A 
ENDROOT
BRANCH   1  11
HETATM   11  N2  UNL     1      28.245   5.051  48.580  1.00  0.00    -0.316 N 
HETATM   12  C6  UNL     1      29.158   6.087  48.254  1.00  0.00     0.301 C 
HETATM   13  O1  UNL     1      28.960   7.327  48.287  1.00  0.00    -0.258 OA
HETATM   14  H9  UNL     1      28.510   4.043  48.520  1.00  0.00     0.170 HD
BRANCH  12  15
HETATM   15  C5  UNL     1      30.476   5.642  47.838  1.00  0.00    -0.004 C 
HETATM   16  C4  UNL     1      31.572   5.277  47.473  1.00  0.00    -0.066 C 
BRANCH  16  17
HETATM   17  C3  UNL     1      32.906   4.833  47.052  1.00  0.00     0.365 C 
BRANCH  17  18
HETATM   18  N1  UNL     1      33.100   3.531  47.653  1.00  0.00     0.090 N 
HETATM   19  C1  UNL     1      32.520   2.483  46.871  1.00  0.00     0.310 C 
HETATM   20  C2  UNL     1      34.538   3.329  47.777  1.00  0.00     0.310 C 
ENDBRANCH  17  18
ENDBRANCH  16  17
ENDBRANCH  12  15
ENDBRANCH   1  11
BRANCH   8  21
HETATM   21  N5  UNL     1      25.653   1.555  51.247  1.00  0.00    -0.339 N 
HETATM   22  H13 UNL     1      25.976   0.730  50.702  1.00  0.00     0.167 HD
BRANCH  21  23
HETATM   23  C13 UNL     1      26.329   1.429  52.469  1.00  0.00     0.045 C 
HETATM   24  C14 UNL     1      25.997   1.887  53.646  1.00  0.00    -0.001 C 
HETATM   25  C15 UNL     1      26.129   1.161  54.697  1.00  0.00    -0.007 C 
HETATM   26  C16 UNL     1      27.221   0.172  54.903  1.00  0.00     0.074 C 
HETATM   27  C17 UNL     1      28.009   0.099  53.628  1.00  0.00    -0.006 C 
HETATM   28 BR1  UNL     1      29.661  -0.860  53.626  1.00  0.00    -0.055 Br
HETATM   29  C18 UNL     1      27.601   0.682  52.492  1.00  0.00     0.045 C 
ENDBRANCH  21  23
ENDBRANCH   8  21
TORSDOF 6
ENDMDL
MODEL 8
REMARK VINA RESULT:      -7.7      3.789      9.132
REMARK  6 active torsions:
REMARK  status: ('A' for Active; 'I' for Inactive)
REMARK    1  A    between atoms: N1_2  and  C3_4 
REMARK    2  A    between atoms: C3_4  and  C4_5 
REMARK    3  A    between atoms: C5_6  and  C6_7 
REMARK       I    between atoms: C6_7  and  N2_9 
REMARK    4  A    between atoms: N2_9  and  C7_10 
REMARK    5  A    between atoms: C12_17  and  N5_18 
REMARK    6  A    between atoms: N5_18  and  C13_19 
ROOT
HETATM    1  C7  UNL     1      27.862   5.664  48.641  1.00  0.00     0.036 A 
HETATM    2  C8  UNL     1      26.847   6.507  48.163  1.00  0.00     0.032 A 
HETATM    3  C9  UNL     1      27.205   7.543  47.325  1.00  0.00     0.035 A 
HETATM    4  C10 UNL     1      28.523   7.756  46.959  1.00  0.00     0.072 A 
HETATM    5  N3  UNL     1      28.862   8.768  46.143  1.00  0.00    -0.241 NA
HETATM    6  C11 UNL     1      30.162   8.941  45.811  1.00  0.00     0.236 A 
HETATM    7  N4  UNL     1      31.183   8.154  46.246  1.00  0.00    -0.224 NA
HETATM    8  C12 UNL     1      30.850   7.139  47.063  1.00  0.00     0.142 A 
HETATM    9  C19 UNL     1      29.542   6.942  47.416  1.00  0.00     0.041 A 
HETATM   10  C20 UNL     1      29.161   5.917  48.248  1.00  0.00     0.047 A 
ENDROOT
BRANCH   1  11
HETATM   11  N2  UNL     1      27.505   4.591  49.508  1.00  0.00    -0.316 N 
HETATM   12  C6  UNL     1      26.359   3.812  49.813  1.00  0.00     0.301 C 
HETATM   13  O1  UNL     1      25.211   3.901  49.311  1.00  0.00    -0.258 OA
HETATM   14  H9  UNL     1      28.420   4.437  49.985  1.00  0.00     0.170 HD
BRANCH  12  15
HETATM   15  C5  UNL     1      26.556   2.794  50.829  1.00  0.00    -0.004 C 
HETATM   16  C4  UNL     1      26.705   1.937  51.672  1.00  0.00    -0.066 C 
BRANCH  16  17
HETATM   17  C3  UNL     1      26.906   0.903  52.695  1.00  0.00     0.365 C 
BRANCH  17  18
HETATM   18  N1  UNL     1      28.277   1.043  53.138  1.00  0.00     0.090 N 
HETATM   19  C1  UNL     1      28.559   2.361  53.617  1.00  0.00     0.310 C 
HETATM   20  C2  UNL     1      28.484   0.067  54.199  1.00  0.00     0.310 C 
ENDBRANCH  17  18
ENDBRANCH  16  17
ENDBRANCH  12  15
ENDBRANCH   1  11
BRANCH   8  21
HETATM   21  N5  UNL     1      31.881   6.315  47.526  1.00  0.00    -0.339 N 
HETATM   22  H13 UNL     1      32.360   6.273  48.448  1.00  0.00     0.167 HD
BRANCH  21  23
HETATM   23  C13 UNL     1      32.517   5.312  46.779  1.00  0.00     0.045 C 
HETATM   24  C14 UNL     1      33.514   5.415  45.941  1.00  0.00    -0.001 C 
HETATM   25  C15 UNL     1      34.468   4.556  45.944  1.00  0.00    -0.007 C 
HETATM   26  C16 UNL     1      34.296   3.110  46.246  1.00  0.00     0.074 C 
HETATM   27  C17 UNL     1      32.870   2.904  46.668  1.00  0.00    -0.006 C 
HETATM   28 BR1  UNL     1      32.218   1.118  46.856  1.00  0.00    -0.055 Br
HETATM   29  C18 UNL     1      32.036   3.925  46.917  1.00  0.00     0.045 C 
ENDBRANCH  21  23
ENDBRANCH   8  21
TORSDOF 6
ENDMDL
MODEL 9
REMARK VINA RESULT:      -7.7      2.253      4.547
REMARK  6 active torsions:
REMARK  status: ('A' for Active; 'I' for Inactive)
REMARK    1  A    between atoms: N1_2  and  C3_4 
REMARK    2  A    between atoms: C3_4  and  C4_5 
REMARK    3  A    between atoms: C5_6  and  C6_7 
REMARK       I    between atoms: C6_7  and  N2_9 
REMARK    4  A    between atoms: N2_9  and  C7_10 
REMARK    5  A    between atoms: C12_17  and  N5_18 
REMARK    6  A    between atoms: N5_18  and  C13_19 
ROOT
HETATM    1  C7  UNL     1      26.499   2.016  51.832  1.00  0.00     0.036 A 
HETATM    2  C8  UNL     1      27.533   1.267  52.414  1.00  0.00     0.032 A 
HETATM    3  C9  UNL     1      27.192   0.297  53.334  1.00  0.00     0.035 A 
HETATM    4  C10 UNL     1      25.874   0.060  53.682  1.00  0.00     0.072 A 
HETATM    5  N3  UNL     1      25.552  -0.887  54.579  1.00  0.00    -0.241 NA
HETATM    6  C11 UNL     1      24.251  -1.086  54.891  1.00  0.00     0.236 A 
HETATM    7  N4  UNL     1      23.212  -0.389  54.356  1.00  0.00    -0.224 NA
HETATM    8  C12 UNL     1      23.528   0.560  53.458  1.00  0.00     0.142 A 
HETATM    9  C19 UNL     1      24.837   0.783  53.124  1.00  0.00     0.041 A 
HETATM   10  C20 UNL     1      25.200   1.743  52.210  1.00  0.00     0.047 A 
ENDROOT
BRANCH   1  11
HETATM   11  N2  UNL     1      26.838   3.022  50.881  1.00  0.00    -0.316 N 
HETATM   12  C6  UNL     1      26.246   3.666  49.763  1.00  0.00     0.301 C 
HETATM   13  O1  UNL     1      25.106   3.470  49.276  1.00  0.00    -0.258 OA
HETATM   14  H9  UNL     1      27.799   3.259  51.209  1.00  0.00     0.170 HD
BRANCH  12  15
HETATM   15  C5  UNL     1      27.073   4.671  49.120  1.00  0.00    -0.004 C 
HETATM   16  C4  UNL     1      27.759   5.521  48.598  1.00  0.00    -0.066 C 
BRANCH  16  17
HETATM   17  C3  UNL     1      28.600   6.537  47.952  1.00  0.00     0.365 C 
BRANCH  17  18
HETATM   18  N1  UNL     1      28.157   7.812  48.475  1.00  0.00     0.090 N 
HETATM   19  C1  UNL     1      29.167   8.819  48.372  1.00  0.00     0.310 C 
HETATM   20  C2  UNL     1      26.979   8.200  47.710  1.00  0.00     0.310 C 
ENDBRANCH  17  18
ENDBRANCH  16  17
ENDBRANCH  12  15
ENDBRANCH   1  11
BRANCH   8  21
HETATM   21  N5  UNL     1      22.478   1.292  52.894  1.00  0.00    -0.339 N 
HETATM   22  H13 UNL     1      22.034   2.186  53.187  1.00  0.00     0.167 HD
BRANCH  21  23
HETATM   23  C13 UNL     1      21.767   0.936  51.738  1.00  0.00     0.045 C 
HETATM   24  C14 UNL     1      20.663   0.248  51.629  1.00  0.00    -0.001 C 
HETATM   25  C15 UNL     1      19.737   0.612  50.817  1.00  0.00    -0.007 C 
HETATM   26  C16 UNL     1      19.981   1.262  49.502  1.00  0.00     0.074 C 
HETATM   27  C17 UNL     1      21.455   1.522  49.394  1.00  0.00    -0.006 C 
HETATM   28 BR1  UNL     1      22.165   2.087  47.713  1.00  0.00    -0.055 Br
HETATM   29  C18 UNL     1      22.293   1.372  50.430  1.00  0.00     0.045 C 
ENDBRANCH  21  23
ENDBRANCH   8  21
TORSDOF 6
ENDMDL
