MODEL 1
REMARK VINA RESULT:      -8.5      0.000      0.000
REMARK  5 active torsions:
REMARK  status: ('A' for Active; 'I' for Inactive)
REMARK    1  A    between atoms: C3_3  and  C4_5 
REMARK    2  A    between atoms: C5_6  and  C6_7 
REMARK    3  A    between atoms: C9_10  and  O1_11 
REMARK       I    between atoms: N2_18  and  C15_19 
REMARK    4  A    between atoms: C15_19  and  C16_21 
REMARK    5  A    between atoms: C21_27  and  O3_28 
ROOT
HETATM    1  C6  UNL     1      23.382   1.140  51.986  1.00  0.00     0.172 C 
HETATM    2  C7  UNL     1      23.604   0.055  53.014  1.00  0.00     0.011 C 
HETATM    3  C8  UNL     1      24.809  -0.094  53.425  1.00  0.00     0.022 C 
HETATM    4  C9  UNL     1      25.164  -0.658  54.542  1.00  0.00     0.079 C 
HETATM    5  C11 UNL     1      24.262  -1.115  55.589  1.00  0.00     0.034 C 
HETATM    6  C12 UNL     1      23.004  -1.460  55.420  1.00  0.00    -0.018 C 
HETATM    7  C13 UNL     1      22.012  -1.561  54.332  1.00  0.00     0.088 C 
HETATM    8  C14 UNL     1      22.316  -0.559  53.271  1.00  0.00     0.068 C 
HETATM    9  N1  UNL     1      21.484  -0.093  52.428  1.00  0.00    -0.172 NA
HETATM   10  N2  UNL     1      22.053   0.838  51.546  1.00  0.00    -0.221 N 
HETATM   11  C15 UNL     1      21.190   1.222  50.483  1.00  0.00     0.277 C 
HETATM   12  O2  UNL     1      20.020   0.714  50.410  1.00  0.00    -0.265 OA
ENDROOT
BRANCH   1  13
HETATM   13  C5  UNL     1      23.517   2.404  52.719  1.00  0.00     0.007 C 
HETATM   14  C4  UNL     1      23.956   3.559  52.296  1.00  0.00     0.022 C 
BRANCH  14  15
HETATM   15  C3  UNL     1      24.439   3.935  50.979  1.00  0.00     0.029 C 
HETATM   16  C2  UNL     1      24.397   5.094  50.387  1.00  0.00    -0.007 C 
HETATM   17  C1  UNL     1      24.974   5.182  49.032  1.00  0.00     0.038 C 
HETATM   18 CL1  UNL     1      25.238   3.086  49.678  1.00  0.00    -0.085 Cl
ENDBRANCH  14  15
ENDBRANCH   1  13
BRANCH  11  19
HETATM   19  C16 UNL     1      21.461   2.159  49.410  1.00  0.00     0.067 A 
HETATM   20  C17 UNL     1      22.102   1.943  48.218  1.00  0.00     0.022 A 
HETATM   21  C18 UNL     1      22.336   2.861  47.240  1.00  0.00     0.025 A 
HETATM   22  C19 UNL     1      21.903   4.147  47.424  1.00  0.00     0.036 A 
HETATM   23 CL2  UNL     1      22.176   5.355  46.204  1.00  0.00    -0.084 Cl
HETATM   24  C20 UNL     1      21.253   4.439  48.591  1.00  0.00     0.061 A 
HETATM   25  C21 UNL     1      21.033   3.465  49.573  1.00  0.00     0.083 A 
BRANCH  25  26
HETATM   26  O3  UNL     1      20.358   3.959  50.681  1.00  0.00    -0.360 OA
HETATM   27  H18 UNL     1      20.801   4.518  51.398  1.00  0.00     0.217 HD
ENDBRANCH  25  26
ENDBRANCH  11  19
BRANCH   4  28
HETATM   28  O1  UNL     1      26.513  -0.830  54.737  1.00  0.00    -0.355 OA
HETATM   29  C10 UNL     1      27.367   0.283  54.654  1.00  0.00     0.210 C 
ENDBRANCH   4  28
TORSDOF 5
ENDMDL
MODEL 2
REMARK VINA RESULT:      -8.0      3.068      7.301
REMARK  5 active torsions:
REMARK  status: ('A' for Active; 'I' for Inactive)
REMARK    1  A    between atoms: C3_3  and  C4_5 
REMARK    2  A    between atoms: C5_6  and  C6_7 
REMARK    3  A    between atoms: C9_10  and  O1_11 
REMARK       I    between atoms: N2_18  and  C15_19 
REMARK    4  A    between atoms: C15_19  and  C16_21 
REMARK    5  A    between atoms: C21_27  and  O3_28 
ROOT
HETATM    1  C6  UNL     1      24.466   3.758  50.578  1.00  0.00     0.172 C 
HETATM    2  C7  UNL     1      25.135   4.599  49.515  1.00  0.00     0.011 C 
HETATM    3  C8  UNL     1      24.373   5.401  48.868  1.00  0.00     0.022 C 
HETATM    4  C9  UNL     1      24.762   6.459  48.220  1.00  0.00     0.079 C 
HETATM    5  C11 UNL     1      26.114   7.000  48.208  1.00  0.00     0.034 C 
HETATM    6  C12 UNL     1      27.214   6.318  48.435  1.00  0.00    -0.018 C 
HETATM    7  C13 UNL     1      27.624   4.936  48.757  1.00  0.00     0.088 C 
HETATM    8  C14 UNL     1      26.542   4.249  49.518  1.00  0.00     0.068 C 
HETATM    9  N1  UNL     1      26.695   3.247  50.286  1.00  0.00    -0.172 NA
HETATM   10  N2  UNL     1      25.497   2.809  50.872  1.00  0.00    -0.221 N 
HETATM   11  C15 UNL     1      25.619   1.580  51.576  1.00  0.00     0.277 C 
HETATM   12  O2  UNL     1      26.751   0.991  51.621  1.00  0.00    -0.265 OA
ENDROOT
BRANCH   1  13
HETATM   13  C5  UNL     1      24.154   4.688  51.670  1.00  0.00     0.007 C 
HETATM   14  C4  UNL     1      22.993   5.002  52.179  1.00  0.00     0.022 C 
BRANCH  14  15
HETATM   15  C3  UNL     1      21.670   4.526  51.816  1.00  0.00     0.029 C 
HETATM   16  C2  UNL     1      20.975   3.551  52.332  1.00  0.00    -0.007 C 
HETATM   17  C1  UNL     1      19.643   3.292  51.755  1.00  0.00     0.038 C 
HETATM   18 CL1  UNL     1      20.482   4.993  50.622  1.00  0.00    -0.085 Cl
ENDBRANCH  14  15
ENDBRANCH   1  13
BRANCH  11  19
HETATM   19  C16 UNL     1      24.585   0.859  52.293  1.00  0.00     0.067 A 
HETATM   20  C17 UNL     1      23.256   0.725  51.985  1.00  0.00     0.022 A 
HETATM   21  C18 UNL     1      22.320   0.037  52.696  1.00  0.00     0.025 A 
HETATM   22  C19 UNL     1      22.702  -0.605  53.843  1.00  0.00     0.036 A 
HETATM   23 CL2  UNL     1      21.544  -1.498  54.783  1.00  0.00    -0.084 Cl
HETATM   24  C20 UNL     1      24.015  -0.518  54.215  1.00  0.00     0.061 A 
HETATM   25  C21 UNL     1      24.947   0.202  53.457  1.00  0.00     0.083 A 
BRANCH  25  26
HETATM   26  O3  UNL     1      26.223   0.171  53.999  1.00  0.00    -0.360 OA
HETATM   27  H18 UNL     1      26.788   0.998  54.141  1.00  0.00     0.217 HD
ENDBRANCH  25  26
ENDBRANCH  11  19
BRANCH   4  28
HETATM   28  O1  UNL     1      23.802   7.113  47.487  1.00  0.00    -0.355 OA
HETATM   29  C10 UNL     1      22.664   6.408  47.060  1.00  0.00     0.210 C 
ENDBRANCH   4  28
TORSDOF 5
ENDMDL
MODEL 3
REMARK VINA RESULT:      -7.9      2.884      4.396
REMARK  5 active torsions:
REMARK  status: ('A' for Active; 'I' for Inactive)
REMARK    1  A    between atoms: C3_3  and  C4_5 
REMARK    2  A    between atoms: C5_6  and  C6_7 
REMARK    3  A    between atoms: C9_10  and  O1_11 
REMARK       I    between atoms: N2_18  and  C15_19 
REMARK    4  A    between atoms: C15_19  and  C16_21 
REMARK    5  A    between atoms: C21_27  and  O3_28 
ROOT
HETATM    1  C6  UNL     1      23.987   2.808  51.374  1.00  0.00     0.172 C 
HETATM    2  C7  UNL     1      24.725   1.745  52.152  1.00  0.00     0.011 C 
HETATM    3  C8  UNL     1      24.024   1.059  52.976  1.00  0.00     0.022 C 
HETATM    4  C9  UNL     1      24.332  -0.117  53.439  1.00  0.00     0.079 C 
HETATM    5  C11 UNL     1      25.467  -0.926  53.018  1.00  0.00     0.034 C 
HETATM    6  C12 UNL     1      26.578  -0.469  52.485  1.00  0.00    -0.018 C 
HETATM    7  C13 UNL     1      27.181   0.821  52.097  1.00  0.00     0.088 C 
HETATM    8  C14 UNL     1      26.112   1.792  51.729  1.00  0.00     0.068 C 
HETATM    9  N1  UNL     1      26.259   2.812  50.983  1.00  0.00    -0.172 NA
HETATM   10  N2  UNL     1      25.076   3.547  50.808  1.00  0.00    -0.221 N 
HETATM   11  C15 UNL     1      25.265   4.788  50.140  1.00  0.00     0.277 C 
HETATM   12  O2  UNL     1      26.438   5.128  49.769  1.00  0.00    -0.265 OA
ENDROOT
BRANCH   1  13
HETATM   13  C5  UNL     1      23.165   2.079  50.401  1.00  0.00     0.007 C 
HETATM   14  C4  UNL     1      22.006   2.403  49.895  1.00  0.00     0.022 C 
BRANCH  14  15
HETATM   15  C3  UNL     1      21.189   3.578  50.141  1.00  0.00     0.029 C 
HETATM   16  C2  UNL     1      20.324   4.158  49.359  1.00  0.00    -0.007 C 
HETATM   17  C1  UNL     1      19.632   5.351  49.883  1.00  0.00     0.038 C 
HETATM   18 CL1  UNL     1      20.992   4.675  51.487  1.00  0.00    -0.085 Cl
ENDBRANCH  14  15
ENDBRANCH   1  13
BRANCH  11  19
HETATM   19  C16 UNL     1      24.261   5.776  49.800  1.00  0.00     0.067 A 
HETATM   20  C17 UNL     1      23.594   5.957  48.615  1.00  0.00     0.022 A 
HETATM   21  C18 UNL     1      22.658   6.907  48.343  1.00  0.00     0.025 A 
HETATM   22  C19 UNL     1      22.314   7.797  49.326  1.00  0.00     0.036 A 
HETATM   23 CL2  UNL     1      21.123   9.027  49.027  1.00  0.00    -0.084 Cl
HETATM   24  C20 UNL     1      22.937   7.680  50.537  1.00  0.00     0.061 A 
HETATM   25  C21 UNL     1      23.897   6.688  50.777  1.00  0.00     0.083 A 
BRANCH  25  26
HETATM   26  O3  UNL     1      24.411   6.734  52.065  1.00  0.00    -0.360 OA
HETATM   27  H18 UNL     1      25.060   7.444  52.379  1.00  0.00     0.217 HD
ENDBRANCH  25  26
ENDBRANCH  11  19
BRANCH   4  28
HETATM   28  O1  UNL     1      23.505  -0.626  54.410  1.00  0.00    -0.355 OA
HETATM   29  C10 UNL     1      22.255  -1.152  54.043  1.00  0.00     0.210 C 
ENDBRANCH   4  28
TORSDOF 5
ENDMDL
MODEL 4
REMARK VINA RESULT:      -7.6      2.245      4.436
REMARK  5 active torsions:
REMARK  status: ('A' for Active; 'I' for Inactive)
REMARK    1  A    between atoms: C3_3  and  C4_5 
REMARK    2  A    between atoms: C5_6  and  C6_7 
REMARK    3  A    between atoms: C9_10  and  O1_11 
REMARK       I    between atoms: N2_18  and  C15_19 
REMARK    4  A    between atoms: C15_19  and  C16_21 
REMARK    5  A    between atoms: C21_27  and  O3_28 
ROOT
HETATM    1  C6  UNL     1      21.930   1.627  51.781  1.00  0.00     0.172 C 
HETATM    2  C7  UNL     1      21.265   0.704  52.775  1.00  0.00     0.011 C 
HETATM    3  C8  UNL     1      20.007   0.520  52.619  1.00  0.00     0.022 C 
HETATM    4  C9  UNL     1      19.327  -0.490  53.075  1.00  0.00     0.079 C 
HETATM    5  C11 UNL     1      19.883  -1.659  53.741  1.00  0.00     0.034 C 
HETATM    6  C12 UNL     1      21.027  -1.701  54.388  1.00  0.00    -0.018 C 
HETATM    7  C13 UNL     1      22.146  -0.802  54.734  1.00  0.00     0.088 C 
HETATM    8  C14 UNL     1      22.295   0.251  53.690  1.00  0.00     0.068 C 
HETATM    9  N1  UNL     1      23.355   0.911  53.446  1.00  0.00    -0.172 NA
HETATM   10  N2  UNL     1      23.202   1.838  52.404  1.00  0.00    -0.221 N 
HETATM   11  C15 UNL     1      24.313   2.713  52.248  1.00  0.00     0.277 C 
HETATM   12  O2  UNL     1      25.315   2.600  53.030  1.00  0.00    -0.265 OA
ENDROOT
BRANCH   1  13
HETATM   13  C5  UNL     1      21.977   0.875  50.521  1.00  0.00     0.007 C 
HETATM   14  C4  UNL     1      21.924   1.318  49.294  1.00  0.00     0.022 C 
BRANCH  14  15
HETATM   15  C3  UNL     1      21.804   2.682  48.812  1.00  0.00     0.029 C 
HETATM   16  C2  UNL     1      22.290   3.218  47.728  1.00  0.00    -0.007 C 
HETATM   17  C1  UNL     1      22.002   4.645  47.493  1.00  0.00     0.038 C 
HETATM   18 CL1  UNL     1      21.018   4.127  49.401  1.00  0.00    -0.085 Cl
ENDBRANCH  14  15
ENDBRANCH   1  13
BRANCH  11  19
HETATM   19  C16 UNL     1      24.479   3.774  51.274  1.00  0.00     0.067 A 
HETATM   20  C17 UNL     1      25.204   3.771  50.111  1.00  0.00     0.022 A 
HETATM   21  C18 UNL     1      25.333   4.800  49.227  1.00  0.00     0.025 A 
HETATM   22  C19 UNL     1      24.688   5.979  49.488  1.00  0.00     0.036 A 
HETATM   23 CL2  UNL     1      24.820   7.320  48.390  1.00  0.00    -0.084 Cl
HETATM   24  C20 UNL     1      23.943   6.059  50.632  1.00  0.00     0.061 A 
HETATM   25  C21 UNL     1      23.837   4.977  51.516  1.00  0.00     0.083 A 
BRANCH  25  26
HETATM   26  O3  UNL     1      23.039   5.256  52.616  1.00  0.00    -0.360 OA
HETATM   27  H18 UNL     1      22.393   4.588  53.018  1.00  0.00     0.217 HD
ENDBRANCH  25  26
ENDBRANCH  11  19
BRANCH   4  28
HETATM   28  O1  UNL     1      17.965  -0.435  52.907  1.00  0.00    -0.355 OA
HETATM   29  C10 UNL     1      17.441  -0.038  51.665  1.00  0.00     0.210 C 
ENDBRANCH   4  28
TORSDOF 5
ENDMDL
MODEL 5
REMARK VINA RESULT:      -7.5      6.264      9.283
REMARK  5 active torsions:
REMARK  status: ('A' for Active; 'I' for Inactive)
REMARK    1  A    between atoms: C3_3  and  C4_5 
REMARK    2  A    between atoms: C5_6  and  C6_7 
REMARK    3  A    between atoms: C9_10  and  O1_11 
REMARK       I    between atoms: N2_18  and  C15_19 
REMARK    4  A    between atoms: C15_19  and  C16_21 
REMARK    5  A    between atoms: C21_27  and  O3_28 
ROOT
HETATM    1  C6  UNL     1      27.337   6.821  48.688  1.00  0.00     0.172 C 
HETATM    2  C7  UNL     1      26.341   5.918  49.376  1.00  0.00     0.011 C 
HETATM    3  C8  UNL     1      25.367   6.501  49.971  1.00  0.00     0.022 C 
HETATM    4  C9  UNL     1      24.227   5.954  50.273  1.00  0.00     0.079 C 
HETATM    5  C11 UNL     1      23.794   4.618  49.886  1.00  0.00     0.034 C 
HETATM    6  C12 UNL     1      24.587   3.611  49.596  1.00  0.00    -0.018 C 
HETATM    7  C13 UNL     1      26.031   3.315  49.513  1.00  0.00     0.088 C 
HETATM    8  C14 UNL     1      26.785   4.554  49.163  1.00  0.00     0.068 C 
HETATM    9  N1  UNL     1      27.935   4.596  48.622  1.00  0.00    -0.172 NA
HETATM   10  N2  UNL     1      28.399   5.903  48.408  1.00  0.00    -0.221 N 
HETATM   11  C15 UNL     1      29.756   5.968  47.985  1.00  0.00     0.277 C 
HETATM   12  O2  UNL     1      30.421   4.887  47.842  1.00  0.00    -0.265 OA
ENDROOT
BRANCH   1  13
HETATM   13  C5  UNL     1      26.641   7.339  47.504  1.00  0.00     0.007 C 
HETATM   14  C4  UNL     1      26.776   8.492  46.907  1.00  0.00     0.022 C 
BRANCH  14  15
HETATM   15  C3  UNL     1      27.654   9.601  47.234  1.00  0.00     0.029 C 
HETATM   16  C2  UNL     1      28.071  10.573  46.474  1.00  0.00    -0.007 C 
HETATM   17  C1  UNL     1      28.967  11.573  47.085  1.00  0.00     0.038 C 
HETATM   18 CL1  UNL     1      28.494  10.117  48.677  1.00  0.00    -0.085 Cl
ENDBRANCH  14  15
ENDBRANCH   1  13
BRANCH  11  19
HETATM   19  C16 UNL     1      30.535   7.150  47.675  1.00  0.00     0.067 A 
HETATM   20  C17 UNL     1      30.661   7.812  46.481  1.00  0.00     0.022 A 
HETATM   21  C18 UNL     1      31.413   8.921  46.239  1.00  0.00     0.025 A 
HETATM   22  C19 UNL     1      32.134   9.468  47.267  1.00  0.00     0.036 A 
HETATM   23 CL2  UNL     1      33.107  10.885  47.009  1.00  0.00    -0.084 Cl
HETATM   24  C20 UNL     1      32.059   8.862  48.491  1.00  0.00     0.061 A 
HETATM   25  C21 UNL     1      31.274   7.720  48.698  1.00  0.00     0.083 A 
BRANCH  25  26
HETATM   26  O3  UNL     1      31.330   7.257  50.005  1.00  0.00    -0.360 OA
HETATM   27  H18 UNL     1      31.783   7.763  50.755  1.00  0.00     0.217 HD
ENDBRANCH  25  26
ENDBRANCH  11  19
BRANCH   4  28
HETATM   28  O1  UNL     1      23.364   6.715  51.023  1.00  0.00    -0.355 OA
HETATM   29  C10 UNL     1      21.980   6.494  50.916  1.00  0.00     0.210 C 
ENDBRANCH   4  28
TORSDOF 5
ENDMDL
MODEL 6
REMARK VINA RESULT:      -7.5      3.768      7.774
REMARK  5 active torsions:
REMARK  status: ('A' for Active; 'I' for Inactive)
REMARK    1  A    between atoms: C3_3  and  C4_5 
REMARK    2  A    between atoms: C5_6  and  C6_7 
REMARK    3  A    between atoms: C9_10  and  O1_11 
REMARK       I    between atoms: N2_18  and  C15_19 
REMARK    4  A    between atoms: C15_19  and  C16_21 
REMARK    5  A    between atoms: C21_27  and  O3_28 
ROOT
HETATM    1  C6  UNL     1      25.434   5.463  49.399  1.00  0.00     0.172 C 
HETATM    2  C7  UNL     1      26.404   6.138  48.458  1.00  0.00     0.011 C 
HETATM    3  C8  UNL     1      25.934   7.107  47.764  1.00  0.00     0.022 C 
HETATM    4  C9  UNL     1      26.634   8.054  47.212  1.00  0.00     0.079 C 
HETATM    5  C11 UNL     1      28.066   8.260  47.378  1.00  0.00     0.034 C 
HETATM    6  C12 UNL     1      28.942   7.334  47.700  1.00  0.00    -0.018 C 
HETATM    7  C13 UNL     1      28.977   5.890  48.005  1.00  0.00     0.088 C 
HETATM    8  C14 UNL     1      27.680   5.465  48.606  1.00  0.00     0.068 C 
HETATM    9  N1  UNL     1      27.501   4.443  49.342  1.00  0.00    -0.172 NA
HETATM   10  N2  UNL     1      26.172   4.292  49.767  1.00  0.00    -0.221 N 
HETATM   11  C15 UNL     1      25.918   3.058  50.426  1.00  0.00     0.277 C 
HETATM   12  O2  UNL     1      26.869   2.218  50.573  1.00  0.00    -0.265 OA
ENDROOT
BRANCH   1  13
HETATM   13  C5  UNL     1      25.217   6.422  50.489  1.00  0.00     0.007 C 
HETATM   14  C4  UNL     1      24.105   6.740  51.097  1.00  0.00     0.022 C 
BRANCH  14  15
HETATM   15  C3  UNL     1      22.760   6.241  50.877  1.00  0.00     0.029 C 
HETATM   16  C2  UNL     1      22.095   5.342  51.546  1.00  0.00    -0.007 C 
HETATM   17  C1  UNL     1      20.727   5.033  51.089  1.00  0.00     0.038 C 
HETATM   18 CL1  UNL     1      21.500   6.579  49.714  1.00  0.00    -0.085 Cl
ENDBRANCH  14  15
ENDBRANCH   1  13
BRANCH  11  19
HETATM   19  C16 UNL     1      24.666   2.590  50.987  1.00  0.00     0.067 A 
HETATM   20  C17 UNL     1      23.532   2.175  50.338  1.00  0.00     0.022 A 
HETATM   21  C18 UNL     1      22.374   1.746  50.913  1.00  0.00     0.025 A 
HETATM   22  C19 UNL     1      22.289   1.709  52.280  1.00  0.00     0.036 A 
HETATM   23 CL2  UNL     1      20.834   1.167  53.060  1.00  0.00    -0.084 Cl
HETATM   24  C20 UNL     1      23.383   2.109  52.997  1.00  0.00     0.061 A 
HETATM   25  C21 UNL     1      24.556   2.544  52.366  1.00  0.00     0.083 A 
BRANCH  25  26
HETATM   26  O3  UNL     1      25.549   2.906  53.265  1.00  0.00    -0.360 OA
HETATM   27  H18 UNL     1      26.074   2.236  53.812  1.00  0.00     0.217 HD
ENDBRANCH  25  26
ENDBRANCH  11  19
BRANCH   4  28
HETATM   28  O1  UNL     1      25.950   8.928  46.403  1.00  0.00    -0.355 OA
HETATM   29  C10 UNL     1      24.885   8.450  45.620  1.00  0.00     0.210 C 
ENDBRANCH   4  28
TORSDOF 5
ENDMDL
MODEL 7
REMARK VINA RESULT:      -7.4      2.371      4.791
REMARK  5 active torsions:
REMARK  status: ('A' for Active; 'I' for Inactive)
REMARK    1  A    between atoms: C3_3  and  C4_5 
REMARK    2  A    between atoms: C5_6  and  C6_7 
REMARK    3  A    between atoms: C9_10  and  O1_11 
REMARK       I    between atoms: N2_18  and  C15_19 
REMARK    4  A    between atoms: C15_19  and  C16_21 
REMARK    5  A    between atoms: C21_27  and  O3_28 
ROOT
HETATM    1  C6  UNL     1      21.851   1.722  51.668  1.00  0.00     0.172 C 
HETATM    2  C7  UNL     1      21.047   0.855  52.608  1.00  0.00     0.011 C 
HETATM    3  C8  UNL     1      19.795   0.758  52.354  1.00  0.00     0.022 C 
HETATM    4  C9  UNL     1      19.011  -0.198  52.756  1.00  0.00     0.079 C 
HETATM    5  C11 UNL     1      19.430  -1.400  53.465  1.00  0.00     0.034 C 
HETATM    6  C12 UNL     1      20.513  -1.517  54.200  1.00  0.00    -0.018 C 
HETATM    7  C13 UNL     1      21.662  -0.697  54.632  1.00  0.00     0.088 C 
HETATM    8  C14 UNL     1      21.967   0.336  53.601  1.00  0.00     0.068 C 
HETATM    9  N1  UNL     1      23.087   0.918  53.441  1.00  0.00    -0.172 NA
HETATM   10  N2  UNL     1      23.082   1.847  52.389  1.00  0.00    -0.221 N 
HETATM   11  C15 UNL     1      24.260   2.641  52.321  1.00  0.00     0.277 C 
HETATM   12  O2  UNL     1      25.188   2.463  53.179  1.00  0.00    -0.265 OA
ENDROOT
BRANCH   1  13
HETATM   13  C5  UNL     1      21.944   0.960  50.417  1.00  0.00     0.007 C 
HETATM   14  C4  UNL     1      21.953   1.395  49.186  1.00  0.00     0.022 C 
BRANCH  14  15
HETATM   15  C3  UNL     1      21.876   2.757  48.690  1.00  0.00     0.029 C 
HETATM   16  C2  UNL     1      22.549   3.322  47.728  1.00  0.00    -0.007 C 
HETATM   17  C1  UNL     1      22.255   4.739  47.439  1.00  0.00     0.038 C 
HETATM   18 CL1  UNL     1      20.926   4.163  49.108  1.00  0.00    -0.085 Cl
ENDBRANCH  14  15
ENDBRANCH   1  13
BRANCH  11  19
HETATM   19  C16 UNL     1      24.578   3.681  51.362  1.00  0.00     0.067 A 
HETATM   20  C17 UNL     1      23.938   4.873  51.139  1.00  0.00     0.022 A 
HETATM   21  C18 UNL     1      24.274   5.820  50.220  1.00  0.00     0.025 A 
HETATM   22  C19 UNL     1      25.358   5.601  49.412  1.00  0.00     0.036 A 
HETATM   23 CL2  UNL     1      25.828   6.780  48.225  1.00  0.00    -0.084 Cl
HETATM   24  C20 UNL     1      26.048   4.432  49.576  1.00  0.00     0.061 A 
HETATM   25  C21 UNL     1      25.669   3.482  50.533  1.00  0.00     0.083 A 
BRANCH  25  26
HETATM   26  O3  UNL     1      26.494   2.367  50.543  1.00  0.00    -0.360 OA
HETATM   27  H18 UNL     1      26.156   1.424  50.396  1.00  0.00     0.217 HD
ENDBRANCH  25  26
ENDBRANCH  11  19
BRANCH   4  28
HETATM   28  O1  UNL     1      17.674  -0.049  52.480  1.00  0.00    -0.355 OA
HETATM   29  C10 UNL     1      17.173  -0.489  51.243  1.00  0.00     0.210 C 
ENDBRANCH   4  28
TORSDOF 5
ENDMDL
MODEL 8
REMARK VINA RESULT:      -7.2      9.212     11.490
REMARK  5 active torsions:
REMARK  status: ('A' for Active; 'I' for Inactive)
REMARK    1  A    between atoms: C3_3  and  C4_5 
REMARK    2  A    between atoms: C5_6  and  C6_7 
REMARK    3  A    between atoms: C9_10  and  O1_11 
REMARK       I    between atoms: N2_18  and  C15_19 
REMARK    4  A    between atoms: C15_19  and  C16_21 
REMARK    5  A    between atoms: C21_27  and  O3_28 
ROOT
HETATM    1  C6  UNL     1      31.800   6.411  46.475  1.00  0.00     0.172 C 
HETATM    2  C7  UNL     1      32.656   5.246  46.039  1.00  0.00     0.011 C 
HETATM    3  C8  UNL     1      33.429   5.457  45.039  1.00  0.00     0.022 C 
HETATM    4  C9  UNL     1      34.495   4.772  44.747  1.00  0.00     0.079 C 
HETATM    5  C11 UNL     1      35.080   3.718  45.565  1.00  0.00     0.034 C 
HETATM    6  C12 UNL     1      34.434   2.984  46.444  1.00  0.00    -0.018 C 
HETATM    7  C13 UNL     1      33.069   2.833  46.984  1.00  0.00     0.088 C 
HETATM    8  C14 UNL     1      32.351   4.138  46.923  1.00  0.00     0.068 C 
HETATM    9  N1  UNL     1      31.358   4.474  47.645  1.00  0.00    -0.172 NA
HETATM   10  N2  UNL     1      30.885   5.767  47.369  1.00  0.00    -0.221 N 
HETATM   11  C15 UNL     1      29.665   6.083  48.026  1.00  0.00     0.277 C 
HETATM   12  O2  UNL     1      29.113   5.211  48.779  1.00  0.00    -0.265 OA
ENDROOT
BRANCH   1  13
HETATM   13  C5  UNL     1      32.724   7.356  47.114  1.00  0.00     0.007 C 
HETATM   14  C4  UNL     1      32.677   8.660  47.149  1.00  0.00     0.022 C 
BRANCH  14  15
HETATM   15  C3  UNL     1      31.697   9.562  46.569  1.00  0.00     0.029 C 
HETATM   16  C2  UNL     1      31.471  10.816  46.838  1.00  0.00    -0.007 C 
HETATM   17  C1  UNL     1      30.399  11.488  46.080  1.00  0.00     0.038 C 
HETATM   18 CL1  UNL     1      30.465   9.408  45.339  1.00  0.00    -0.085 Cl
ENDBRANCH  14  15
ENDBRANCH   1  13
BRANCH  11  19
HETATM   19  C16 UNL     1      28.915   7.322  47.962  1.00  0.00     0.067 A 
HETATM   20  C17 UNL     1      27.855   7.648  47.156  1.00  0.00     0.022 A 
HETATM   21  C18 UNL     1      27.183   8.832  47.131  1.00  0.00     0.025 A 
HETATM   22  C19 UNL     1      27.573   9.831  47.983  1.00  0.00     0.036 A 
HETATM   23 CL2  UNL     1      26.746  11.359  47.990  1.00  0.00    -0.084 Cl
HETATM   24  C20 UNL     1      28.625   9.580  48.820  1.00  0.00     0.061 A 
HETATM   25  C21 UNL     1      29.290   8.347  48.814  1.00  0.00     0.083 A 
BRANCH  25  26
HETATM   26  O3  UNL     1      30.327   8.289  49.733  1.00  0.00    -0.360 OA
HETATM   27  H18 UNL     1      30.938   9.071  49.933  1.00  0.00     0.217 HD
ENDBRANCH  25  26
ENDBRANCH  11  19
BRANCH   4  28
HETATM   28  O1  UNL     1      35.114   5.082  43.561  1.00  0.00    -0.355 OA
HETATM   29  C10 UNL     1      34.839   6.313  42.942  1.00  0.00     0.210 C 
ENDBRANCH   4  28
TORSDOF 5
ENDMDL
MODEL 9
REMARK VINA RESULT:      -7.0      2.574      4.171
REMARK  5 active torsions:
REMARK  status: ('A' for Active; 'I' for Inactive)
REMARK    1  A    between atoms: C3_3  and  C4_5 
REMARK    2  A    between atoms: C5_6  and  C6_7 
REMARK    3  A    between atoms: C9_10  and  O1_11 
REMARK       I    between atoms: N2_18  and  C15_19 
REMARK    4  A    between atoms: C15_19  and  C16_21 
REMARK    5  A    between atoms: C21_27  and  O3_28 
ROOT
HETATM    1  C6  UNL     1      23.047   2.209  51.321  1.00  0.00     0.172 C 
HETATM    2  C7  UNL     1      24.092   1.456  52.111  1.00  0.00     0.011 C 
HETATM    3  C8  UNL     1      23.656   0.711  53.058  1.00  0.00     0.022 C 
HETATM    4  C9  UNL     1      24.292  -0.291  53.589  1.00  0.00     0.079 C 
HETATM    5  C11 UNL     1      25.563  -0.832  53.128  1.00  0.00     0.034 C 
HETATM    6  C12 UNL     1      26.475  -0.173  52.449  1.00  0.00    -0.018 C 
HETATM    7  C13 UNL     1      26.692   1.177  51.891  1.00  0.00     0.088 C 
HETATM    8  C14 UNL     1      25.383   1.802  51.548  1.00  0.00     0.068 C 
HETATM    9  N1  UNL     1      25.205   2.738  50.705  1.00  0.00    -0.172 NA
HETATM   10  N2  UNL     1      23.862   3.129  50.587  1.00  0.00    -0.221 N 
HETATM   11  C15 UNL     1      23.672   4.297  49.797  1.00  0.00     0.277 C 
HETATM   12  O2  UNL     1      24.686   4.877  49.282  1.00  0.00    -0.265 OA
ENDROOT
BRANCH   1  13
HETATM   13  C5  UNL     1      22.372   1.194  50.503  1.00  0.00     0.007 C 
HETATM   14  C4  UNL     1      21.133   1.157  50.093  1.00  0.00     0.022 C 
BRANCH  14  15
HETATM   15  C3  UNL     1      20.058   2.105  50.323  1.00  0.00     0.029 C 
HETATM   16  C2  UNL     1      19.776   2.786  51.398  1.00  0.00    -0.007 C 
HETATM   17  C1  UNL     1      18.610   3.687  51.342  1.00  0.00     0.038 C 
HETATM   18 CL1  UNL     1      18.747   2.734  49.354  1.00  0.00    -0.085 Cl
ENDBRANCH  14  15
ENDBRANCH   1  13
BRANCH  11  19
HETATM   19  C16 UNL     1      22.424   4.959  49.474  1.00  0.00     0.067 A 
HETATM   20  C17 UNL     1      21.696   5.843  50.228  1.00  0.00     0.022 A 
HETATM   21  C18 UNL     1      20.522   6.438  49.880  1.00  0.00     0.025 A 
HETATM   22  C19 UNL     1      19.974   6.152  48.658  1.00  0.00     0.036 A 
HETATM   23 CL2  UNL     1      18.477   6.887  48.167  1.00  0.00    -0.084 Cl
HETATM   24  C20 UNL     1      20.643   5.277  47.848  1.00  0.00     0.061 A 
HETATM   25  C21 UNL     1      21.849   4.686  48.244  1.00  0.00     0.083 A 
BRANCH  25  26
HETATM   26  O3  UNL     1      22.371   3.830  47.285  1.00  0.00    -0.360 OA
HETATM   27  H18 UNL     1      23.364   3.680  47.154  1.00  0.00     0.217 HD
ENDBRANCH  25  26
ENDBRANCH  11  19
BRANCH   4  28
HETATM   28  O1  UNL     1      23.700  -0.882  54.678  1.00  0.00    -0.355 OA
HETATM   29  C10 UNL     1      22.300  -0.990  54.726  1.00  0.00     0.210 C 
ENDBRANCH   4  28
TORSDOF 5
ENDMDL
