MODEL 1
REMARK VINA RESULT:      -7.5      0.000      0.000
REMARK  5 active torsions:
REMARK  status: ('A' for Active; 'I' for Inactive)
REMARK    1  A    between atoms: O1_2  and  C2_3 
REMARK    2  A    between atoms: C6_9  and  N3_10 
REMARK    3  A    between atoms: C14_19  and  O2_20 
REMARK    4  A    between atoms: O2_20  and  C15_21 
REMARK    5  A    between atoms: C15_21  and  C16_22 
ROOT
HETATM    1  C2  UNL     1      22.014   2.337  51.709  1.00  0.00     0.103 A 
HETATM    2  C3  UNL     1      21.434   1.558  52.715  1.00  0.00     0.072 A 
HETATM    3  C4  UNL     1      22.165   0.639  53.439  1.00  0.00     0.075 A 
HETATM    4  N1  UNL     1      21.677  -0.144  54.409  1.00  0.00    -0.241 NA
HETATM    5  C5  UNL     1      22.508  -1.002  55.026  1.00  0.00     0.236 A 
HETATM    6  N2  UNL     1      23.809  -1.080  54.685  1.00  0.00    -0.223 NA
HETATM    7  C6  UNL     1      24.339  -0.309  53.713  1.00  0.00     0.143 A 
HETATM    8  C12 UNL     1      23.491   0.573  53.077  1.00  0.00     0.042 A 
HETATM    9  C13 UNL     1      24.120   1.310  52.097  1.00  0.00     0.057 A 
HETATM   10  C14 UNL     1      23.355   2.216  51.398  1.00  0.00     0.103 A 
ENDROOT
BRANCH   7  11
HETATM   11  N3  UNL     1      25.736  -0.562  53.571  1.00  0.00    -0.338 N 
HETATM   12  C7  UNL     1      26.442   0.212  54.566  1.00  0.00     0.094 A 
HETATM   13  C8  UNL     1      27.763   0.206  54.709  1.00  0.00     0.041 A 
HETATM   14  C9  UNL     1      28.588  -0.627  53.819  1.00  0.00     0.033 A 
HETATM   15 CL1  UNL     1      30.313  -0.767  53.850  1.00  0.00    -0.085 Cl
HETATM   16  C10 UNL     1      27.878  -1.308  52.934  1.00  0.00     0.017 A 
HETATM   17  C11 UNL     1      26.427  -1.425  52.632  1.00  0.00     0.159 A 
ENDBRANCH   7  11
BRANCH  10  18
HETATM   18  O2  UNL     1      23.882   3.005  50.399  1.00  0.00    -0.346 OA
BRANCH  18  19
HETATM   19  C15 UNL     1      24.864   3.976  50.576  1.00  0.00     0.207 C 
BRANCH  19  20
HETATM   20  C16 UNL     1      26.006   3.681  49.638  1.00  0.00     0.248 C 
HETATM   21  F1  UNL     1      26.570   2.477  50.058  1.00  0.00    -0.253 F 
ENDBRANCH  19  20
ENDBRANCH  18  19
ENDBRANCH  10  18
BRANCH   1  22
HETATM   22  O1  UNL     1      21.255   3.256  50.996  1.00  0.00    -0.353 OA
HETATM   23  C1  UNL     1      20.118   3.885  51.554  1.00  0.00     0.210 C 
ENDBRANCH   1  22
TORSDOF 5
ENDMDL
MODEL 2
REMARK VINA RESULT:      -7.2      3.629      5.878
REMARK  5 active torsions:
REMARK  status: ('A' for Active; 'I' for Inactive)
REMARK    1  A    between atoms: O1_2  and  C2_3 
REMARK    2  A    between atoms: C6_9  and  N3_10 
REMARK    3  A    between atoms: C14_19  and  O2_20 
REMARK    4  A    between atoms: O2_20  and  C15_21 
REMARK    5  A    between atoms: C15_21  and  C16_22 
ROOT
HETATM    1  C2  UNL     1      25.625   0.250  54.225  1.00  0.00     0.103 A 
HETATM    2  C3  UNL     1      24.366   0.065  53.646  1.00  0.00     0.072 A 
HETATM    3  C4  UNL     1      23.958   0.783  52.540  1.00  0.00     0.075 A 
HETATM    4  N1  UNL     1      22.769   0.664  51.939  1.00  0.00    -0.241 NA
HETATM    5  C5  UNL     1      22.506   1.437  50.869  1.00  0.00     0.236 A 
HETATM    6  N2  UNL     1      23.413   2.316  50.404  1.00  0.00    -0.223 NA
HETATM    7  C6  UNL     1      24.623   2.466  50.982  1.00  0.00     0.143 A 
HETATM    8  C12 UNL     1      24.898   1.676  52.079  1.00  0.00     0.042 A 
HETATM    9  C13 UNL     1      26.151   1.905  52.604  1.00  0.00     0.057 A 
HETATM   10  C14 UNL     1      26.520   1.168  53.708  1.00  0.00     0.103 A 
ENDROOT
BRANCH   7  11
HETATM   11  N3  UNL     1      25.404   3.432  50.281  1.00  0.00    -0.338 N 
HETATM   12  C7  UNL     1      24.797   4.730  50.469  1.00  0.00     0.094 A 
HETATM   13  C8  UNL     1      25.276   5.854  49.947  1.00  0.00     0.041 A 
HETATM   14  C9  UNL     1      26.496   5.813  49.124  1.00  0.00     0.033 A 
HETATM   15 CL1  UNL     1      27.268   7.163  48.363  1.00  0.00    -0.085 Cl
HETATM   16  C10 UNL     1      26.998   4.595  48.994  1.00  0.00     0.017 A 
HETATM   17  C11 UNL     1      26.608   3.251  49.493  1.00  0.00     0.159 A 
ENDBRANCH   7  11
BRANCH  10  18
HETATM   18  O2  UNL     1      27.748   1.316  54.312  1.00  0.00    -0.346 OA
BRANCH  18  19
HETATM   19  C15 UNL     1      28.973   0.995  53.731  1.00  0.00     0.207 C 
BRANCH  19  20
HETATM   20  C16 UNL     1      29.164  -0.498  53.808  1.00  0.00     0.248 C 
HETATM   21  F1  UNL     1      30.270  -0.802  53.016  1.00  0.00    -0.253 F 
ENDBRANCH  19  20
ENDBRANCH  18  19
ENDBRANCH  10  18
BRANCH   1  22
HETATM   22  O1  UNL     1      26.010  -0.485  55.338  1.00  0.00    -0.353 OA
HETATM   23  C1  UNL     1      25.068  -1.022  56.246  1.00  0.00     0.210 C 
ENDBRANCH   1  22
TORSDOF 5
ENDMDL
MODEL 3
REMARK VINA RESULT:      -7.0      4.122      6.979
REMARK  5 active torsions:
REMARK  status: ('A' for Active; 'I' for Inactive)
REMARK    1  A    between atoms: O1_2  and  C2_3 
REMARK    2  A    between atoms: C6_9  and  N3_10 
REMARK    3  A    between atoms: C14_19  and  O2_20 
REMARK    4  A    between atoms: O2_20  and  C15_21 
REMARK    5  A    between atoms: C15_21  and  C16_22 
ROOT
HETATM    1  C2  UNL     1      27.026   0.130  53.588  1.00  0.00     0.103 A 
HETATM    2  C3  UNL     1      27.431   1.137  52.707  1.00  0.00     0.072 A 
HETATM    3  C4  UNL     1      26.530   1.818  51.914  1.00  0.00     0.075 A 
HETATM    4  N1  UNL     1      26.844   2.785  51.045  1.00  0.00    -0.241 NA
HETATM    5  C5  UNL     1      25.858   3.358  50.331  1.00  0.00     0.236 A 
HETATM    6  N2  UNL     1      24.576   2.972  50.479  1.00  0.00    -0.223 NA
HETATM    7  C6  UNL     1      24.218   2.001  51.344  1.00  0.00     0.143 A 
HETATM    8  C12 UNL     1      25.225   1.411  52.079  1.00  0.00     0.042 A 
HETATM    9  C13 UNL     1      24.765   0.428  52.926  1.00  0.00     0.057 A 
HETATM   10  C14 UNL     1      25.696  -0.228  53.701  1.00  0.00     0.103 A 
ENDROOT
BRANCH   7  11
HETATM   11  N3  UNL     1      22.805   1.808  51.333  1.00  0.00    -0.338 N 
HETATM   12  C7  UNL     1      22.411   1.413  50.000  1.00  0.00     0.094 A 
HETATM   13  C8  UNL     1      21.157   1.153  49.645  1.00  0.00     0.041 A 
HETATM   14  C9  UNL     1      20.080   1.262  50.643  1.00  0.00     0.033 A 
HETATM   15 CL1  UNL     1      18.396   0.965  50.373  1.00  0.00    -0.085 Cl
HETATM   16  C10 UNL     1      20.511   1.626  51.839  1.00  0.00     0.017 A 
HETATM   17  C11 UNL     1      21.844   1.953  52.410  1.00  0.00     0.159 A 
ENDBRANCH   7  11
BRANCH  10  18
HETATM   18  O2  UNL     1      25.346  -1.226  54.583  1.00  0.00    -0.346 OA
BRANCH  18  19
HETATM   19  C15 UNL     1      24.530  -1.061  55.700  1.00  0.00     0.207 C 
BRANCH  19  20
HETATM   20  C16 UNL     1      23.157  -1.591  55.373  1.00  0.00     0.248 C 
HETATM   21  F1  UNL     1      22.342  -0.482  55.148  1.00  0.00    -0.253 F 
ENDBRANCH  19  20
ENDBRANCH  18  19
ENDBRANCH  10  18
BRANCH   1  22
HETATM   22  O1  UNL     1      27.954  -0.539  54.376  1.00  0.00    -0.353 OA
HETATM   23  C1  UNL     1      29.331  -0.568  54.054  1.00  0.00     0.210 C 
ENDBRANCH   1  22
TORSDOF 5
ENDMDL
MODEL 4
REMARK VINA RESULT:      -6.8      3.436      5.539
REMARK  5 active torsions:
REMARK  status: ('A' for Active; 'I' for Inactive)
REMARK    1  A    between atoms: O1_2  and  C2_3 
REMARK    2  A    between atoms: C6_9  and  N3_10 
REMARK    3  A    between atoms: C14_19  and  O2_20 
REMARK    4  A    between atoms: O2_20  and  C15_21 
REMARK    5  A    between atoms: C15_21  and  C16_22 
ROOT
HETATM    1  C2  UNL     1      23.109   0.078  53.121  1.00  0.00     0.103 A 
HETATM    2  C3  UNL     1      22.054   0.277  52.225  1.00  0.00     0.072 A 
HETATM    3  C4  UNL     1      22.160   1.137  51.152  1.00  0.00     0.075 A 
HETATM    4  N1  UNL     1      21.192   1.383  50.261  1.00  0.00    -0.241 NA
HETATM    5  C5  UNL     1      21.436   2.254  49.266  1.00  0.00     0.236 A 
HETATM    6  N2  UNL     1      22.626   2.875  49.158  1.00  0.00    -0.223 NA
HETATM    7  C6  UNL     1      23.627   2.655  50.036  1.00  0.00     0.143 A 
HETATM    8  C12 UNL     1      23.383   1.762  51.058  1.00  0.00     0.042 A 
HETATM    9  C13 UNL     1      24.458   1.610  51.905  1.00  0.00     0.057 A 
HETATM   10  C14 UNL     1      24.312   0.742  52.964  1.00  0.00     0.103 A 
ENDROOT
BRANCH   7  11
HETATM   11  N3  UNL     1      24.786   3.406  49.681  1.00  0.00    -0.338 N 
HETATM   12  C7  UNL     1      24.368   4.738  49.305  1.00  0.00     0.094 A 
HETATM   13  C8  UNL     1      25.204   5.696  48.918  1.00  0.00     0.041 A 
HETATM   14  C9  UNL     1      26.649   5.421  48.858  1.00  0.00     0.033 A 
HETATM   15 CL1  UNL     1      27.887   6.533  48.383  1.00  0.00    -0.085 Cl
HETATM   16  C10 UNL     1      26.961   4.185  49.216  1.00  0.00     0.017 A 
HETATM   17  C11 UNL     1      26.180   3.004  49.666  1.00  0.00     0.159 A 
ENDBRANCH   7  11
BRANCH  10  18
HETATM   18  O2  UNL     1      25.322   0.513  53.872  1.00  0.00    -0.346 OA
BRANCH  18  19
HETATM   19  C15 UNL     1      26.674   0.397  53.556  1.00  0.00     0.207 C 
BRANCH  19  20
HETATM   20  C16 UNL     1      26.919  -0.982  52.999  1.00  0.00     0.248 C 
HETATM   21  F1  UNL     1      26.737  -0.896  51.620  1.00  0.00    -0.253 F 
ENDBRANCH  19  20
ENDBRANCH  18  19
ENDBRANCH  10  18
BRANCH   1  22
HETATM   22  O1  UNL     1      22.976  -0.795  54.192  1.00  0.00    -0.353 OA
HETATM   23  C1  UNL     1      21.719  -1.301  54.597  1.00  0.00     0.210 C 
ENDBRANCH   1  22
TORSDOF 5
ENDMDL
MODEL 5
REMARK VINA RESULT:      -6.8      3.369      5.661
REMARK  5 active torsions:
REMARK  status: ('A' for Active; 'I' for Inactive)
REMARK    1  A    between atoms: O1_2  and  C2_3 
REMARK    2  A    between atoms: C6_9  and  N3_10 
REMARK    3  A    between atoms: C14_19  and  O2_20 
REMARK    4  A    between atoms: O2_20  and  C15_21 
REMARK    5  A    between atoms: C15_21  and  C16_22 
ROOT
HETATM    1  C2  UNL     1      27.054   0.633  53.269  1.00  0.00     0.103 A 
HETATM    2  C3  UNL     1      26.639  -0.126  54.366  1.00  0.00     0.072 A 
HETATM    3  C4  UNL     1      25.321  -0.495  54.543  1.00  0.00     0.075 A 
HETATM    4  N1  UNL     1      24.851  -1.213  55.569  1.00  0.00    -0.241 NA
HETATM    5  C5  UNL     1      23.536  -1.492  55.614  1.00  0.00     0.236 A 
HETATM    6  N2  UNL     1      22.699  -1.062  54.650  1.00  0.00    -0.223 NA
HETATM    7  C6  UNL     1      23.133  -0.336  53.599  1.00  0.00     0.143 A 
HETATM    8  C12 UNL     1      24.481  -0.047  53.548  1.00  0.00     0.042 A 
HETATM    9  C13 UNL     1      24.827   0.703  52.446  1.00  0.00     0.057 A 
HETATM   10  C14 UNL     1      26.153   1.050  52.307  1.00  0.00     0.103 A 
ENDROOT
BRANCH   7  11
HETATM   11  N3  UNL     1      22.058  -0.037  52.710  1.00  0.00    -0.338 N 
HETATM   12  C7  UNL     1      20.822  -0.437  53.343  1.00  0.00     0.094 A 
HETATM   13  C8  UNL     1      19.625  -0.297  52.783  1.00  0.00     0.041 A 
HETATM   14  C9  UNL     1      19.513   0.297  51.441  1.00  0.00     0.033 A 
HETATM   15 CL1  UNL     1      18.051   0.561  50.552  1.00  0.00    -0.085 Cl
HETATM   16  C10 UNL     1      20.682   0.640  50.922  1.00  0.00     0.017 A 
HETATM   17  C11 UNL     1      22.090   0.561  51.389  1.00  0.00     0.159 A 
ENDBRANCH   7  11
BRANCH  10  18
HETATM   18  O2  UNL     1      26.609   1.797  51.244  1.00  0.00    -0.346 OA
BRANCH  18  19
HETATM   19  C15 UNL     1      26.156   3.069  50.904  1.00  0.00     0.207 C 
BRANCH  19  20
HETATM   20  C16 UNL     1      26.373   3.277  49.427  1.00  0.00     0.248 C 
HETATM   21  F1  UNL     1      27.379   4.234  49.300  1.00  0.00    -0.253 F 
ENDBRANCH  19  20
ENDBRANCH  18  19
ENDBRANCH  10  18
BRANCH   1  22
HETATM   22  O1  UNL     1      28.388   0.990  53.115  1.00  0.00    -0.353 OA
HETATM   23  C1  UNL     1      29.312   0.917  54.183  1.00  0.00     0.210 C 
ENDBRANCH   1  22
TORSDOF 5
ENDMDL
MODEL 6
REMARK VINA RESULT:      -6.8      3.318      5.828
REMARK  5 active torsions:
REMARK  status: ('A' for Active; 'I' for Inactive)
REMARK    1  A    between atoms: O1_2  and  C2_3 
REMARK    2  A    between atoms: C6_9  and  N3_10 
REMARK    3  A    between atoms: C14_19  and  O2_20 
REMARK    4  A    between atoms: O2_20  and  C15_21 
REMARK    5  A    between atoms: C15_21  and  C16_22 
ROOT
HETATM    1  C2  UNL     1      26.305  -0.045  53.179  1.00  0.00     0.103 A 
HETATM    2  C3  UNL     1      25.477  -0.716  54.084  1.00  0.00     0.072 A 
HETATM    3  C4  UNL     1      24.107  -0.550  54.082  1.00  0.00     0.075 A 
HETATM    4  N1  UNL     1      23.256  -1.153  54.920  1.00  0.00    -0.241 NA
HETATM    5  C5  UNL     1      21.942  -0.889  54.806  1.00  0.00     0.236 A 
HETATM    6  N2  UNL     1      21.480  -0.038  53.871  1.00  0.00    -0.223 NA
HETATM    7  C6  UNL     1      22.305   0.590  53.007  1.00  0.00     0.143 A 
HETATM    8  C12 UNL     1      23.654   0.323  53.120  1.00  0.00     0.042 A 
HETATM    9  C13 UNL     1      24.415   1.014  52.203  1.00  0.00     0.057 A 
HETATM   10  C14 UNL     1      25.778   0.821  52.237  1.00  0.00     0.103 A 
ENDROOT
BRANCH   7  11
HETATM   11  N3  UNL     1      21.566   1.407  52.102  1.00  0.00    -0.338 N 
HETATM   12  C7  UNL     1      21.205   0.604  50.956  1.00  0.00     0.094 A 
HETATM   13  C8  UNL     1      20.508   1.061  49.921  1.00  0.00     0.041 A 
HETATM   14  C9  UNL     1      20.059   2.463  49.908  1.00  0.00     0.033 A 
HETATM   15 CL1  UNL     1      19.146   3.237  48.657  1.00  0.00    -0.085 Cl
HETATM   16  C10 UNL     1      20.423   3.138  50.986  1.00  0.00     0.017 A 
HETATM   17  C11 UNL     1      21.186   2.802  52.215  1.00  0.00     0.159 A 
ENDBRANCH   7  11
BRANCH  10  18
HETATM   18  O2  UNL     1      26.633   1.460  51.367  1.00  0.00    -0.346 OA
BRANCH  18  19
HETATM   19  C15 UNL     1      26.646   2.829  51.116  1.00  0.00     0.207 C 
BRANCH  19  20
HETATM   20  C16 UNL     1      26.279   3.056  49.672  1.00  0.00     0.248 C 
HETATM   21  F1  UNL     1      27.271   3.871  49.129  1.00  0.00    -0.253 F 
ENDBRANCH  19  20
ENDBRANCH  18  19
ENDBRANCH  10  18
BRANCH   1  22
HETATM   22  O1  UNL     1      27.681  -0.230  53.202  1.00  0.00    -0.353 OA
HETATM   23  C1  UNL     1      28.453   0.019  54.360  1.00  0.00     0.210 C 
ENDBRANCH   1  22
TORSDOF 5
ENDMDL
MODEL 7
REMARK VINA RESULT:      -6.8      3.732      6.007
REMARK  5 active torsions:
REMARK  status: ('A' for Active; 'I' for Inactive)
REMARK    1  A    between atoms: O1_2  and  C2_3 
REMARK    2  A    between atoms: C6_9  and  N3_10 
REMARK    3  A    between atoms: C14_19  and  O2_20 
REMARK    4  A    between atoms: O2_20  and  C15_21 
REMARK    5  A    between atoms: C15_21  and  C16_22 
ROOT
HETATM    1  C2  UNL     1      25.032   0.224  53.189  1.00  0.00     0.103 A 
HETATM    2  C3  UNL     1      23.794   0.871  53.144  1.00  0.00     0.072 A 
HETATM    3  C4  UNL     1      23.594   2.013  52.395  1.00  0.00     0.075 A 
HETATM    4  N1  UNL     1      22.442   2.688  52.310  1.00  0.00    -0.241 NA
HETATM    5  C5  UNL     1      22.395   3.792  51.544  1.00  0.00     0.236 A 
HETATM    6  N2  UNL     1      23.480   4.220  50.870  1.00  0.00    -0.223 NA
HETATM    7  C6  UNL     1      24.660   3.568  50.930  1.00  0.00     0.143 A 
HETATM    8  C12 UNL     1      24.713   2.435  51.714  1.00  0.00     0.042 A 
HETATM    9  C13 UNL     1      25.957   1.844  51.718  1.00  0.00     0.057 A 
HETATM   10  C14 UNL     1      26.116   0.706  52.478  1.00  0.00     0.103 A 
ENDROOT
BRANCH   7  11
HETATM   11  N3  UNL     1      25.633   4.205  50.104  1.00  0.00    -0.338 N 
HETATM   12  C7  UNL     1      25.308   5.610  50.020  1.00  0.00     0.094 A 
HETATM   13  C8  UNL     1      26.017   6.494  49.326  1.00  0.00     0.041 A 
HETATM   14  C9  UNL     1      27.211   6.051  48.587  1.00  0.00     0.033 A 
HETATM   15 CL1  UNL     1      28.256   7.048  47.632  1.00  0.00    -0.085 Cl
HETATM   16  C10 UNL     1      27.449   4.755  48.708  1.00  0.00     0.017 A 
HETATM   17  C11 UNL     1      26.782   3.637  49.424  1.00  0.00     0.159 A 
ENDBRANCH   7  11
BRANCH  10  18
HETATM   18  O2  UNL     1      27.316   0.035  52.554  1.00  0.00    -0.346 OA
BRANCH  18  19
HETATM   19  C15 UNL     1      28.306   0.266  53.505  1.00  0.00     0.207 C 
BRANCH  19  20
HETATM   20  C16 UNL     1      29.272  -0.891  53.483  1.00  0.00     0.248 C 
HETATM   21  F1  UNL     1      30.553  -0.344  53.427  1.00  0.00    -0.253 F 
ENDBRANCH  19  20
ENDBRANCH  18  19
ENDBRANCH  10  18
BRANCH   1  22
HETATM   22  O1  UNL     1      25.207  -0.924  53.951  1.00  0.00    -0.353 OA
HETATM   23  C1  UNL     1      24.651  -1.058  55.244  1.00  0.00     0.210 C 
ENDBRANCH   1  22
TORSDOF 5
ENDMDL
MODEL 8
REMARK VINA RESULT:      -6.8      3.659      6.057
REMARK  5 active torsions:
REMARK  status: ('A' for Active; 'I' for Inactive)
REMARK    1  A    between atoms: O1_2  and  C2_3 
REMARK    2  A    between atoms: C6_9  and  N3_10 
REMARK    3  A    between atoms: C14_19  and  O2_20 
REMARK    4  A    between atoms: O2_20  and  C15_21 
REMARK    5  A    between atoms: C15_21  and  C16_22 
ROOT
HETATM    1  C2  UNL     1      25.752  -0.329  53.225  1.00  0.00     0.103 A 
HETATM    2  C3  UNL     1      24.394  -0.613  53.399  1.00  0.00     0.072 A 
HETATM    3  C4  UNL     1      23.410   0.297  53.074  1.00  0.00     0.075 A 
HETATM    4  N1  UNL     1      22.095   0.098  53.220  1.00  0.00    -0.241 NA
HETATM    5  C5  UNL     1      21.249   1.082  52.866  1.00  0.00     0.236 A 
HETATM    6  N2  UNL     1      21.705   2.250  52.373  1.00  0.00    -0.223 NA
HETATM    7  C6  UNL     1      23.022   2.490  52.211  1.00  0.00     0.143 A 
HETATM    8  C12 UNL     1      23.894   1.484  52.572  1.00  0.00     0.042 A 
HETATM    9  C13 UNL     1      25.215   1.824  52.378  1.00  0.00     0.057 A 
HETATM   10  C14 UNL     1      26.166   0.887  52.715  1.00  0.00     0.103 A 
ENDROOT
BRANCH   7  11
HETATM   11  N3  UNL     1      23.236   3.781  51.644  1.00  0.00    -0.338 N 
HETATM   12  C7  UNL     1      23.188   3.659  50.205  1.00  0.00     0.094 A 
HETATM   13  C8  UNL     1      23.349   4.680  49.369  1.00  0.00     0.041 A 
HETATM   14  C9  UNL     1      23.592   6.029  49.906  1.00  0.00     0.033 A 
HETATM   15 CL1  UNL     1      23.824   7.475  48.982  1.00  0.00    -0.085 Cl
HETATM   16  C10 UNL     1      23.622   6.068  51.228  1.00  0.00     0.017 A 
HETATM   17  C11 UNL     1      23.467   5.053  52.302  1.00  0.00     0.159 A 
ENDBRANCH   7  11
BRANCH  10  18
HETATM   18  O2  UNL     1      27.514   1.121  52.561  1.00  0.00    -0.346 OA
BRANCH  18  19
HETATM   19  C15 UNL     1      28.286   1.940  53.382  1.00  0.00     0.207 C 
BRANCH  19  20
HETATM   20  C16 UNL     1      29.280   1.081  54.119  1.00  0.00     0.248 C 
HETATM   21  F1  UNL     1      28.618   0.563  55.231  1.00  0.00    -0.253 F 
ENDBRANCH  19  20
ENDBRANCH  18  19
ENDBRANCH  10  18
BRANCH   1  22
HETATM   22  O1  UNL     1      26.722  -1.264  53.560  1.00  0.00    -0.353 OA
HETATM   23  C1  UNL     1      27.150  -2.260  52.651  1.00  0.00     0.210 C 
ENDBRANCH   1  22
TORSDOF 5
ENDMDL
MODEL 9
REMARK VINA RESULT:      -6.7      2.967      4.243
REMARK  5 active torsions:
REMARK  status: ('A' for Active; 'I' for Inactive)
REMARK    1  A    between atoms: O1_2  and  C2_3 
REMARK    2  A    between atoms: C6_9  and  N3_10 
REMARK    3  A    between atoms: C14_19  and  O2_20 
REMARK    4  A    between atoms: O2_20  and  C15_21 
REMARK    5  A    between atoms: C15_21  and  C16_22 
ROOT
HETATM    1  C2  UNL     1      20.126  -0.779  53.420  1.00  0.00     0.103 A 
HETATM    2  C3  UNL     1      20.859  -1.292  54.495  1.00  0.00     0.072 A 
HETATM    3  C4  UNL     1      22.218  -1.087  54.616  1.00  0.00     0.075 A 
HETATM    4  N1  UNL     1      22.983  -1.552  55.610  1.00  0.00    -0.241 NA
HETATM    5  C5  UNL     1      24.300  -1.278  55.594  1.00  0.00     0.236 A 
HETATM    6  N2  UNL     1      24.849  -0.552  54.602  1.00  0.00    -0.223 NA
HETATM    7  C6  UNL     1      24.113  -0.065  53.582  1.00  0.00     0.143 A 
HETATM    8  C12 UNL     1      22.762  -0.342  53.594  1.00  0.00     0.042 A 
HETATM    9  C13 UNL     1      22.096   0.188  52.510  1.00  0.00     0.057 A 
HETATM   10  C14 UNL     1      20.740  -0.039  52.427  1.00  0.00     0.103 A 
ENDROOT
BRANCH   7  11
HETATM   11  N3  UNL     1      24.924   0.693  52.687  1.00  0.00    -0.338 N 
HETATM   12  C7  UNL     1      24.290   1.974  52.473  1.00  0.00     0.094 A 
HETATM   13  C8  UNL     1      24.787   2.925  51.689  1.00  0.00     0.041 A 
HETATM   14  C9  UNL     1      26.057   2.695  50.981  1.00  0.00     0.033 A 
HETATM   15 CL1  UNL     1      26.859   3.806  49.923  1.00  0.00    -0.085 Cl
HETATM   16  C10 UNL     1      26.582   1.504  51.222  1.00  0.00     0.017 A 
HETATM   17  C11 UNL     1      26.178   0.338  52.050  1.00  0.00     0.159 A 
ENDBRANCH   7  11
BRANCH  10  18
HETATM   18  O2  UNL     1      19.977   0.445  51.388  1.00  0.00    -0.346 OA
BRANCH  18  19
HETATM   19  C15 UNL     1      20.014   1.751  50.906  1.00  0.00     0.207 C 
BRANCH  19  20
HETATM   20  C16 UNL     1      19.407   2.663  51.941  1.00  0.00     0.248 C 
HETATM   21  F1  UNL     1      20.466   3.280  52.604  1.00  0.00    -0.253 F 
ENDBRANCH  19  20
ENDBRANCH  18  19
ENDBRANCH  10  18
BRANCH   1  22
HETATM   22  O1  UNL     1      18.759  -0.999  53.323  1.00  0.00    -0.353 OA
HETATM   23  C1  UNL     1      18.176  -2.249  53.638  1.00  0.00     0.210 C 
ENDBRANCH   1  22
TORSDOF 5
ENDMDL
