MODEL 1
REMARK VINA RESULT:      -6.6      0.000      0.000
REMARK  4 active torsions:
REMARK  status: ('A' for Active; 'I' for Inactive)
REMARK    1  A    between atoms: C2_2  and  C3_3 
REMARK    2  A    between atoms: C10_12  and  N3_13 
REMARK    3  A    between atoms: N3_13  and  C11_14 
REMARK    4  A    between atoms: C11_14  and  C12_15 
ROOT
HETATM    1  C3  UNL     1      23.812   5.154  51.347  1.00  0.00     0.360 C 
HETATM    2  N1  UNL     1      23.583   4.383  52.480  1.00  0.00    -0.279 NA
HETATM    3  C4  UNL     1      24.064   3.365  53.052  1.00  0.00     0.169 C 
HETATM    4  C5  UNL     1      25.005   2.182  53.275  1.00  0.00    -0.005 A 
HETATM    5  C6  UNL     1      26.288   2.225  53.819  1.00  0.00     0.126 A 
HETATM    6  N2  UNL     1      27.065   1.132  53.877  1.00  0.00    -0.272 NA
HETATM    7  C7  UNL     1      26.557  -0.003  53.392  1.00  0.00     0.117 A 
HETATM    8  C8  UNL     1      25.316  -0.187  52.834  1.00  0.00     0.029 A 
HETATM    9  C9  UNL     1      24.469   0.875  52.742  1.00  0.00    -0.020 A 
HETATM   10  C10 UNL     1      23.136   1.364  52.386  1.00  0.00     0.059 C 
HETATM   11  C13 UNL     1      23.465   1.992  51.317  1.00  0.00     0.075 C 
HETATM   12  C14 UNL     1      24.608   2.255  50.485  1.00  0.00    -0.004 C 
HETATM   13  C15 UNL     1      24.345   3.145  49.556  1.00  0.00     0.003 C 
HETATM   14  C16 UNL     1      22.968   3.601  49.713  1.00  0.00     0.300 C 
HETATM   15  N4  UNL     1      23.133   5.033  50.113  1.00  0.00     0.114 N 
HETATM   16  H18 UNL     1      23.604   5.484  49.314  1.00  0.00     0.319 HD
ENDROOT
BRANCH  10  17
HETATM   17  N3  UNL     1      22.577   0.749  53.500  1.00  0.00    -0.403 N 
HETATM   18  H9  UNL     1      23.375   0.769  54.210  1.00  0.00     0.154 HD
BRANCH  17  19
HETATM   19  C11 UNL     1      21.317   0.190  53.815  1.00  0.00     0.184 C 
BRANCH  19  20
HETATM   20  C12 UNL     1      21.543  -1.294  54.031  1.00  0.00     0.250 C 
HETATM   21  O1  UNL     1      21.783  -1.519  55.200  1.00  0.00    -0.305 OA
ENDBRANCH  19  20
ENDBRANCH  17  19
ENDBRANCH  10  17
BRANCH   1  22
HETATM   22  C2  UNL     1      23.864   6.647  51.686  1.00  0.00     0.020 C 
HETATM   23  C1  UNL     1      24.041   7.591  50.762  1.00  0.00     0.011 C 
ENDBRANCH   1  22
TORSDOF 4
ENDMDL
MODEL 2
REMARK VINA RESULT:      -6.4      2.281      4.108
REMARK  4 active torsions:
REMARK  status: ('A' for Active; 'I' for Inactive)
REMARK    1  A    between atoms: C2_2  and  C3_3 
REMARK    2  A    between atoms: C10_12  and  N3_13 
REMARK    3  A    between atoms: N3_13  and  C11_14 
REMARK    4  A    between atoms: C11_14  and  C12_15 
ROOT
HETATM    1  C3  UNL     1      24.245   4.154  50.453  1.00  0.00     0.360 C 
HETATM    2  N1  UNL     1      24.060   2.778  50.487  1.00  0.00    -0.279 NA
HETATM    3  C4  UNL     1      23.111   1.944  50.511  1.00  0.00     0.169 C 
HETATM    4  C5  UNL     1      21.665   1.449  50.525  1.00  0.00    -0.005 A 
HETATM    5  C6  UNL     1      20.814   1.326  49.427  1.00  0.00     0.126 A 
HETATM    6  N2  UNL     1      19.528   0.971  49.571  1.00  0.00    -0.272 NA
HETATM    7  C7  UNL     1      19.094   0.740  50.812  1.00  0.00     0.117 A 
HETATM    8  C8  UNL     1      19.820   0.821  51.974  1.00  0.00     0.029 A 
HETATM    9  C9  UNL     1      21.134   1.173  51.910  1.00  0.00    -0.020 A 
HETATM   10  C10 UNL     1      22.397   1.367  52.624  1.00  0.00     0.059 C 
HETATM   11  C13 UNL     1      22.421   2.649  52.581  1.00  0.00     0.075 C 
HETATM   12  C14 UNL     1      21.635   3.765  52.131  1.00  0.00    -0.004 C 
HETATM   13  C15 UNL     1      22.290   4.899  52.228  1.00  0.00     0.003 C 
HETATM   14  C16 UNL     1      23.632   4.629  52.731  1.00  0.00     0.300 C 
HETATM   15  N4  UNL     1      24.504   4.983  51.568  1.00  0.00     0.114 N 
HETATM   16  H18 UNL     1      24.344   5.988  51.406  1.00  0.00     0.319 HD
ENDROOT
BRANCH  10  17
HETATM   17  N3  UNL     1      22.557  -0.005  52.781  1.00  0.00    -0.403 N 
HETATM   18  H9  UNL     1      22.223  -0.393  51.843  1.00  0.00     0.154 HD
BRANCH  17  19
HETATM   19  C11 UNL     1      23.024  -0.853  53.811  1.00  0.00     0.184 C 
BRANCH  19  20
HETATM   20  C12 UNL     1      21.973  -0.826  54.904  1.00  0.00     0.250 C 
HETATM   21  O1  UNL     1      21.301  -1.837  54.868  1.00  0.00    -0.305 OA
ENDBRANCH  19  20
ENDBRANCH  17  19
ENDBRANCH  10  17
BRANCH   1  22
HETATM   22  C2  UNL     1      25.232   4.560  49.354  1.00  0.00     0.020 C 
HETATM   23  C1  UNL     1      26.507   4.170  49.349  1.00  0.00     0.011 C 
ENDBRANCH   1  22
TORSDOF 4
ENDMDL
MODEL 3
REMARK VINA RESULT:      -6.3      2.341      5.813
REMARK  4 active torsions:
REMARK  status: ('A' for Active; 'I' for Inactive)
REMARK    1  A    between atoms: C2_2  and  C3_3 
REMARK    2  A    between atoms: C10_12  and  N3_13 
REMARK    3  A    between atoms: N3_13  and  C11_14 
REMARK    4  A    between atoms: C11_14  and  C12_15 
ROOT
HETATM    1  C3  UNL     1      23.674  -0.246  53.836  1.00  0.00     0.360 C 
HETATM    2  N1  UNL     1      22.907   0.849  53.461  1.00  0.00    -0.279 NA
HETATM    3  C4  UNL     1      22.632   1.508  52.418  1.00  0.00     0.169 C 
HETATM    4  C5  UNL     1      22.664   1.890  50.939  1.00  0.00    -0.005 A 
HETATM    5  C6  UNL     1      21.941   1.294  49.906  1.00  0.00     0.126 A 
HETATM    6  N2  UNL     1      22.123   1.650  48.625  1.00  0.00    -0.272 NA
HETATM    7  C7  UNL     1      23.026   2.601  48.378  1.00  0.00     0.117 A 
HETATM    8  C8  UNL     1      23.801   3.269  49.294  1.00  0.00     0.029 A 
HETATM    9  C9  UNL     1      23.672   2.966  50.615  1.00  0.00    -0.020 A 
HETATM   10  C10 UNL     1      24.053   3.270  51.995  1.00  0.00     0.059 C 
HETATM   11  C13 UNL     1      24.792   2.242  52.199  1.00  0.00     0.075 C 
HETATM   12  C14 UNL     1      25.301   1.082  51.519  1.00  0.00    -0.004 C 
HETATM   13  C15 UNL     1      25.917   0.263  52.340  1.00  0.00     0.003 C 
HETATM   14  C16 UNL     1      25.838   0.799  53.694  1.00  0.00     0.300 C 
HETATM   15  N4  UNL     1      24.970  -0.196  54.398  1.00  0.00     0.114 N 
HETATM   16  H18 UNL     1      25.492  -1.084  54.361  1.00  0.00     0.319 HD
ENDROOT
BRANCH  10  17
HETATM   17  N3  UNL     1      23.305   4.442  51.977  1.00  0.00    -0.403 N 
HETATM   18  H9  UNL     1      22.329   4.107  52.253  1.00  0.00     0.154 HD
BRANCH  17  19
HETATM   19  C11 UNL     1      23.572   5.804  51.707  1.00  0.00     0.184 C 
BRANCH  19  20
HETATM   20  C12 UNL     1      22.346   6.354  51.004  1.00  0.00     0.250 C 
HETATM   21  O1  UNL     1      21.372   5.676  51.263  1.00  0.00    -0.305 OA
ENDBRANCH  19  20
ENDBRANCH  17  19
ENDBRANCH  10  17
BRANCH   1  22
HETATM   22  C2  UNL     1      22.862  -1.239  54.672  1.00  0.00     0.020 C 
HETATM   23  C1  UNL     1      21.532  -1.312  54.617  1.00  0.00     0.011 C 
ENDBRANCH   1  22
TORSDOF 4
ENDMDL
MODEL 4
REMARK VINA RESULT:      -6.2      2.207      4.744
REMARK  4 active torsions:
REMARK  status: ('A' for Active; 'I' for Inactive)
REMARK    1  A    between atoms: C2_2  and  C3_3 
REMARK    2  A    between atoms: C10_12  and  N3_13 
REMARK    3  A    between atoms: N3_13  and  C11_14 
REMARK    4  A    between atoms: C11_14  and  C12_15 
ROOT
HETATM    1  C3  UNL     1      25.166   1.914  52.023  1.00  0.00     0.360 C 
HETATM    2  N1  UNL     1      24.095   1.035  51.931  1.00  0.00    -0.279 NA
HETATM    3  C4  UNL     1      22.977   0.952  51.347  1.00  0.00     0.169 C 
HETATM    4  C5  UNL     1      21.823   1.375  50.440  1.00  0.00    -0.005 A 
HETATM    5  C6  UNL     1      21.766   1.260  49.051  1.00  0.00     0.126 A 
HETATM    6  N2  UNL     1      20.737   1.756  48.346  1.00  0.00    -0.272 NA
HETATM    7  C7  UNL     1      19.767   2.366  49.030  1.00  0.00     0.117 A 
HETATM    8  C8  UNL     1      19.695   2.546  50.390  1.00  0.00     0.029 A 
HETATM    9  C9  UNL     1      20.701   2.068  51.174  1.00  0.00    -0.020 A 
HETATM   10  C10 UNL     1      21.212   1.845  52.527  1.00  0.00     0.059 C 
HETATM   11  C13 UNL     1      22.132   2.738  52.510  1.00  0.00     0.075 C 
HETATM   12  C14 UNL     1      22.673   3.767  51.664  1.00  0.00    -0.004 C 
HETATM   13  C15 UNL     1      23.778   4.277  52.157  1.00  0.00     0.003 C 
HETATM   14  C16 UNL     1      24.109   3.584  53.396  1.00  0.00     0.300 C 
HETATM   15  N4  UNL     1      25.373   2.863  53.050  1.00  0.00     0.114 N 
HETATM   16  H18 UNL     1      26.054   3.603  52.825  1.00  0.00     0.319 HD
ENDROOT
BRANCH  10  17
HETATM   17  N3  UNL     1      20.279   0.838  52.748  1.00  0.00    -0.403 N 
HETATM   18  H9  UNL     1      19.563   1.000  51.972  1.00  0.00     0.154 HD
BRANCH  17  19
HETATM   19  C11 UNL     1      20.137  -0.216  53.679  1.00  0.00     0.184 C 
BRANCH  19  20
HETATM   20  C12 UNL     1      21.343  -0.148  54.596  1.00  0.00     0.250 C 
HETATM   21  O1  UNL     1      21.579  -1.243  55.066  1.00  0.00    -0.305 OA
ENDBRANCH  19  20
ENDBRANCH  17  19
ENDBRANCH  10  17
BRANCH   1  22
HETATM   22  C2  UNL     1      26.501   1.196  51.800  1.00  0.00     0.020 C 
HETATM   23  C1  UNL     1      26.700  -0.078  52.135  1.00  0.00     0.011 C 
ENDBRANCH   1  22
TORSDOF 4
ENDMDL
MODEL 5
REMARK VINA RESULT:      -6.2      2.030      5.387
REMARK  4 active torsions:
REMARK  status: ('A' for Active; 'I' for Inactive)
REMARK    1  A    between atoms: C2_2  and  C3_3 
REMARK    2  A    between atoms: C10_12  and  N3_13 
REMARK    3  A    between atoms: N3_13  and  C11_14 
REMARK    4  A    between atoms: C11_14  and  C12_15 
ROOT
HETATM    1  C3  UNL     1      27.737  -0.332  53.270  1.00  0.00     0.360 C 
HETATM    2  N1  UNL     1      26.861  -0.254  52.195  1.00  0.00    -0.279 NA
HETATM    3  C4  UNL     1      26.264   0.628  51.515  1.00  0.00     0.169 C 
HETATM    4  C5  UNL     1      25.842   2.030  51.079  1.00  0.00    -0.005 A 
HETATM    5  C6  UNL     1      26.571   2.912  50.280  1.00  0.00     0.126 A 
HETATM    6  N2  UNL     1      26.143   4.161  50.041  1.00  0.00    -0.272 NA
HETATM    7  C7  UNL     1      24.988   4.528  50.599  1.00  0.00     0.117 A 
HETATM    8  C8  UNL     1      24.173   3.766  51.399  1.00  0.00     0.029 A 
HETATM    9  C9  UNL     1      24.537   2.486  51.686  1.00  0.00    -0.020 A 
HETATM   10  C10 UNL     1      24.186   1.215  52.321  1.00  0.00     0.059 C 
HETATM   11  C13 UNL     1      25.000   1.289  53.310  1.00  0.00     0.075 C 
HETATM   12  C14 UNL     1      25.972   2.174  53.890  1.00  0.00    -0.004 C 
HETATM   13  C15 UNL     1      26.633   1.602  54.871  1.00  0.00     0.003 C 
HETATM   14  C16 UNL     1      26.174   0.225  55.013  1.00  0.00     0.300 C 
HETATM   15  N4  UNL     1      27.376  -0.571  54.616  1.00  0.00     0.114 N 
HETATM   16  H18 UNL     1      28.101  -0.329  55.307  1.00  0.00     0.319 HD
ENDROOT
BRANCH  10  17
HETATM   17  N3  UNL     1      23.243   0.946  51.336  1.00  0.00    -0.403 N 
HETATM   18  H9  UNL     1      23.841   0.809  50.462  1.00  0.00     0.154 HD
BRANCH  17  19
HETATM   19  C11 UNL     1      21.834   0.828  51.296  1.00  0.00     0.184 C 
BRANCH  19  20
HETATM   20  C12 UNL     1      21.423   0.122  52.574  1.00  0.00     0.250 C 
HETATM   21  O1  UNL     1      20.785   0.872  53.284  1.00  0.00    -0.305 OA
ENDBRANCH  19  20
ENDBRANCH  17  19
ENDBRANCH  10  17
BRANCH   1  22
HETATM   22  C2  UNL     1      28.928  -1.243  52.957  1.00  0.00     0.020 C 
HETATM   23  C1  UNL     1      30.018  -1.294  53.721  1.00  0.00     0.011 C 
ENDBRANCH   1  22
TORSDOF 4
ENDMDL
MODEL 6
REMARK VINA RESULT:      -6.2      1.947      4.039
REMARK  4 active torsions:
REMARK  status: ('A' for Active; 'I' for Inactive)
REMARK    1  A    between atoms: C2_2  and  C3_3 
REMARK    2  A    between atoms: C10_12  and  N3_13 
REMARK    3  A    between atoms: N3_13  and  C11_14 
REMARK    4  A    between atoms: C11_14  and  C12_15 
ROOT
HETATM    1  C3  UNL     1      23.027   4.072  49.710  1.00  0.00     0.360 C 
HETATM    2  N1  UNL     1      23.357   2.739  49.920  1.00  0.00    -0.279 NA
HETATM    3  C4  UNL     1      22.952   1.753  50.598  1.00  0.00     0.169 C 
HETATM    4  C5  UNL     1      22.073   0.978  51.578  1.00  0.00    -0.005 A 
HETATM    5  C6  UNL     1      20.826   0.411  51.314  1.00  0.00     0.126 A 
HETATM    6  N2  UNL     1      20.096  -0.165  52.282  1.00  0.00    -0.272 NA
HETATM    7  C7  UNL     1      20.614  -0.174  53.512  1.00  0.00     0.117 A 
HETATM    8  C8  UNL     1      21.823   0.342  53.909  1.00  0.00     0.029 A 
HETATM    9  C9  UNL     1      22.622   0.941  52.984  1.00  0.00    -0.020 A 
HETATM   10  C10 UNL     1      23.910   1.569  52.686  1.00  0.00     0.059 C 
HETATM   11  C13 UNL     1      23.489   2.776  52.578  1.00  0.00     0.075 C 
HETATM   12  C14 UNL     1      22.287   3.553  52.703  1.00  0.00    -0.004 C 
HETATM   13  C15 UNL     1      22.456   4.790  52.296  1.00  0.00     0.003 C 
HETATM   14  C16 UNL     1      23.822   4.945  51.807  1.00  0.00     0.300 C 
HETATM   15  N4  UNL     1      23.629   5.183  50.343  1.00  0.00     0.114 N 
HETATM   16  H18 UNL     1      23.091   6.060  50.280  1.00  0.00     0.319 HD
ENDROOT
BRANCH  10  17
HETATM   17  N3  UNL     1      24.562   0.344  52.762  1.00  0.00    -0.403 N 
HETATM   18  H9  UNL     1      23.800  -0.351  52.484  1.00  0.00     0.154 HD
BRANCH  17  19
HETATM   19  C11 UNL     1      25.871  -0.082  53.086  1.00  0.00     0.184 C 
BRANCH  19  20
HETATM   20  C12 UNL     1      25.986  -0.014  54.596  1.00  0.00     0.250 C 
HETATM   21  O1  UNL     1      26.619   0.968  54.928  1.00  0.00    -0.305 OA
ENDBRANCH  19  20
ENDBRANCH  17  19
ENDBRANCH  10  17
BRANCH   1  22
HETATM   22  C2  UNL     1      22.942   4.399  48.216  1.00  0.00     0.020 C 
HETATM   23  C1  UNL     1      22.198   3.695  47.364  1.00  0.00     0.011 C 
ENDBRANCH   1  22
TORSDOF 4
ENDMDL
MODEL 7
REMARK VINA RESULT:      -6.2      2.922      4.907
REMARK  4 active torsions:
REMARK  status: ('A' for Active; 'I' for Inactive)
REMARK    1  A    between atoms: C2_2  and  C3_3 
REMARK    2  A    between atoms: C10_12  and  N3_13 
REMARK    3  A    between atoms: N3_13  and  C11_14 
REMARK    4  A    between atoms: C11_14  and  C12_15 
ROOT
HETATM    1  C3  UNL     1      21.255   3.247  51.128  1.00  0.00     0.360 C 
HETATM    2  N1  UNL     1      22.422   3.616  51.784  1.00  0.00    -0.279 NA
HETATM    3  C4  UNL     1      23.507   4.213  51.534  1.00  0.00     0.169 C 
HETATM    4  C5  UNL     1      24.548   4.963  50.706  1.00  0.00    -0.005 A 
HETATM    5  C6  UNL     1      24.544   6.322  50.390  1.00  0.00     0.126 A 
HETATM    6  N2  UNL     1      25.462   6.857  49.570  1.00  0.00    -0.272 NA
HETATM    7  C7  UNL     1      26.383   6.033  49.067  1.00  0.00     0.117 A 
HETATM    8  C8  UNL     1      26.505   4.684  49.294  1.00  0.00     0.029 A 
HETATM    9  C9  UNL     1      25.612   4.069  50.118  1.00  0.00    -0.020 A 
HETATM   10  C10 UNL     1      25.208   2.841  50.803  1.00  0.00     0.059 C 
HETATM   11  C13 UNL     1      24.182   2.573  50.082  1.00  0.00     0.075 C 
HETATM   12  C14 UNL     1      23.471   3.058  48.930  1.00  0.00    -0.004 C 
HETATM   13  C15 UNL     1      22.338   2.420  48.748  1.00  0.00     0.003 C 
HETATM   14  C16 UNL     1      22.165   1.445  49.818  1.00  0.00     0.300 C 
HETATM   15  N4  UNL     1      20.986   1.977  50.569  1.00  0.00     0.114 N 
HETATM   16  H18 UNL     1      20.205   1.958  49.895  1.00  0.00     0.319 HD
ENDROOT
BRANCH  10  17
HETATM   17  N3  UNL     1      26.271   2.949  51.693  1.00  0.00    -0.403 N 
HETATM   18  H9  UNL     1      26.207   3.964  52.020  1.00  0.00     0.154 HD
BRANCH  17  19
HETATM   19  C11 UNL     1      27.271   2.075  52.178  1.00  0.00     0.184 C 
BRANCH  19  20
HETATM   20  C12 UNL     1      27.216   2.153  53.691  1.00  0.00     0.250 C 
HETATM   21  O1  UNL     1      28.234   2.653  54.126  1.00  0.00    -0.305 OA
ENDBRANCH  19  20
ENDBRANCH  17  19
ENDBRANCH  10  17
BRANCH   1  22
HETATM   22  C2  UNL     1      20.011   3.659  51.922  1.00  0.00     0.020 C 
HETATM   23  C1  UNL     1      18.774   3.343  51.542  1.00  0.00     0.011 C 
ENDBRANCH   1  22
TORSDOF 4
ENDMDL
MODEL 8
REMARK VINA RESULT:      -6.2      2.814      5.850
REMARK  4 active torsions:
REMARK  status: ('A' for Active; 'I' for Inactive)
REMARK    1  A    between atoms: C2_2  and  C3_3 
REMARK    2  A    between atoms: C10_12  and  N3_13 
REMARK    3  A    between atoms: N3_13  and  C11_14 
REMARK    4  A    between atoms: C11_14  and  C12_15 
ROOT
HETATM    1  C3  UNL     1      23.787  -0.418  54.202  1.00  0.00     0.360 C 
HETATM    2  N1  UNL     1      24.049   0.186  52.980  1.00  0.00    -0.279 NA
HETATM    3  C4  UNL     1      23.744   1.241  52.353  1.00  0.00     0.169 C 
HETATM    4  C5  UNL     1      23.078   2.593  52.104  1.00  0.00    -0.005 A 
HETATM    5  C6  UNL     1      23.506   3.835  52.573  1.00  0.00     0.126 A 
HETATM    6  N2  UNL     1      22.785   4.949  52.373  1.00  0.00    -0.272 NA
HETATM    7  C7  UNL     1      21.638   4.821  51.703  1.00  0.00     0.117 A 
HETATM    8  C8  UNL     1      21.102   3.667  51.186  1.00  0.00     0.029 A 
HETATM    9  C9  UNL     1      21.776   2.495  51.347  1.00  0.00    -0.020 A 
HETATM   10  C10 UNL     1      21.855   1.065  51.045  1.00  0.00     0.059 C 
HETATM   11  C13 UNL     1      21.539   0.628  52.209  1.00  0.00     0.075 C 
HETATM   12  C14 UNL     1      21.143   1.100  53.508  1.00  0.00    -0.004 C 
HETATM   13  C15 UNL     1      21.106   0.130  54.392  1.00  0.00     0.003 C 
HETATM   14  C16 UNL     1      21.526  -1.112  53.753  1.00  0.00     0.300 C 
HETATM   15  N4  UNL     1      22.819  -1.421  54.439  1.00  0.00     0.114 N 
HETATM   16  H18 UNL     1      22.572  -1.558  55.431  1.00  0.00     0.319 HD
ENDROOT
BRANCH  10  17
HETATM   17  N3  UNL     1      22.209   1.329  49.727  1.00  0.00    -0.403 N 
HETATM   18  H9  UNL     1      23.243   1.589  49.805  1.00  0.00     0.154 HD
BRANCH  17  19
HETATM   19  C11 UNL     1      21.542   1.308  48.481  1.00  0.00     0.184 C 
BRANCH  19  20
HETATM   20  C12 UNL     1      22.313   2.235  47.562  1.00  0.00     0.250 C 
HETATM   21  O1  UNL     1      21.868   3.363  47.630  1.00  0.00    -0.305 OA
ENDBRANCH  19  20
ENDBRANCH  17  19
ENDBRANCH  10  17
BRANCH   1  22
HETATM   22  C2  UNL     1      25.078  -0.870  54.891  1.00  0.00     0.020 C 
HETATM   23  C1  UNL     1      26.158  -0.094  54.984  1.00  0.00     0.011 C 
ENDBRANCH   1  22
TORSDOF 4
ENDMDL
MODEL 9
REMARK VINA RESULT:      -6.1      9.207     11.332
REMARK  4 active torsions:
REMARK  status: ('A' for Active; 'I' for Inactive)
REMARK    1  A    between atoms: C2_2  and  C3_3 
REMARK    2  A    between atoms: C10_12  and  N3_13 
REMARK    3  A    between atoms: N3_13  and  C11_14 
REMARK    4  A    between atoms: C11_14  and  C12_15 
ROOT
HETATM    1  C3  UNL     1      33.792   6.088  45.823  1.00  0.00     0.360 C 
HETATM    2  N1  UNL     1      32.427   6.206  46.055  1.00  0.00    -0.279 NA
HETATM    3  C4  UNL     1      31.619   7.013  46.595  1.00  0.00     0.169 C 
HETATM    4  C5  UNL     1      31.157   8.269  47.331  1.00  0.00    -0.005 A 
HETATM    5  C6  UNL     1      30.960   9.536  46.781  1.00  0.00     0.126 A 
HETATM    6  N2  UNL     1      30.646  10.594  47.545  1.00  0.00    -0.272 NA
HETATM    7  C7  UNL     1      30.528  10.384  48.858  1.00  0.00     0.117 A 
HETATM    8  C8  UNL     1      30.690   9.196  49.528  1.00  0.00     0.029 A 
HETATM    9  C9  UNL     1      31.008   8.076  48.821  1.00  0.00    -0.020 A 
HETATM   10  C10 UNL     1      31.234   6.631  48.834  1.00  0.00     0.059 C 
HETATM   11  C13 UNL     1      32.507   6.656  48.678  1.00  0.00     0.075 C 
HETATM   12  C14 UNL     1      33.598   7.585  48.562  1.00  0.00    -0.004 C 
HETATM   13  C15 UNL     1      34.722   6.985  48.244  1.00  0.00     0.003 C 
HETATM   14  C16 UNL     1      34.467   5.559  48.072  1.00  0.00     0.300 C 
HETATM   15  N4  UNL     1      34.704   5.349  46.611  1.00  0.00     0.114 N 
HETATM   16  H18 UNL     1      35.696   5.588  46.461  1.00  0.00     0.319 HD
ENDROOT
BRANCH  10  17
HETATM   17  N3  UNL     1      29.877   6.387  49.010  1.00  0.00    -0.403 N 
HETATM   18  H9  UNL     1      29.637   6.978  49.867  1.00  0.00     0.154 HD
BRANCH  17  19
HETATM   19  C11 UNL     1      28.898   5.614  48.345  1.00  0.00     0.184 C 
BRANCH  19  20
HETATM   20  C12 UNL     1      27.639   6.457  48.298  1.00  0.00     0.250 C 
HETATM   21  O1  UNL     1      27.763   7.356  47.490  1.00  0.00    -0.305 OA
ENDBRANCH  19  20
ENDBRANCH  17  19
ENDBRANCH  10  17
BRANCH   1  22
HETATM   22  C2  UNL     1      34.084   5.746  44.359  1.00  0.00     0.020 C 
HETATM   23  C1  UNL     1      33.539   4.699  43.739  1.00  0.00     0.011 C 
ENDBRANCH   1  22
TORSDOF 4
ENDMDL
