MODEL 1
REMARK VINA RESULT:      -7.0      0.000      0.000
REMARK  1 active torsions:
REMARK  status: ('A' for Active; 'I' for Inactive)
REMARK    1  A    between atoms: O1_2  and  C2_3 
ROOT
HETATM    1  C2  UNL     1      26.087   6.800  49.231  1.00  0.00     0.079 C 
HETATM    2  C3  UNL     1      27.190   6.454  48.648  1.00  0.00     0.035 C 
HETATM    3  C4  UNL     1      27.569   5.070  48.601  1.00  0.00     0.003 C 
HETATM    4  C5  UNL     1      26.717   4.181  49.143  1.00  0.00     0.011 C 
HETATM    5  C6  UNL     1      25.398   4.459  49.773  1.00  0.00    -0.008 C 
HETATM    6  C7  UNL     1      24.952   3.220  49.919  1.00  0.00     0.094 C 
HETATM    7  N1  UNL     1      23.825   2.408  50.395  1.00  0.00    -0.382 N 
HETATM    8  C8  UNL     1      22.664   3.247  49.846  1.00  0.00     0.101 A 
HETATM    9  C9  UNL     1      22.572   2.610  48.640  1.00  0.00     0.027 A 
HETATM   10  C10 UNL     1      22.297   3.730  47.777  1.00  0.00     0.007 A 
HETATM   11 BR1  UNL     1      21.998   3.797  45.960  1.00  0.00    -0.052 Br
HETATM   12  C11 UNL     1      22.264   4.928  48.536  1.00  0.00     0.012 A 
HETATM   13  C12 UNL     1      22.486   4.457  49.705  1.00  0.00     0.100 A 
HETATM   14  C13 UNL     1      23.156   5.193  50.726  1.00  0.00     0.205 A 
HETATM   15  N2  UNL     1      23.657   5.558  51.915  1.00  0.00    -0.241 NA
HETATM   16  C14 UNL     1      23.493   4.753  52.985  1.00  0.00     0.225 A 
HETATM   17  N3  UNL     1      22.856   3.928  52.142  1.00  0.00    -0.263 NA
HETATM   18  C15 UNL     1      22.685   4.226  50.917  1.00  0.00     0.156 A 
HETATM   19  O2  UNL     1      23.837   6.353  50.097  1.00  0.00    -0.338 OA
HETATM   20  C16 UNL     1      25.242   5.900  49.882  1.00  0.00     0.215 C 
HETATM   21  H8  UNL     1      23.457   1.655  50.853  1.00  0.00     0.160 HD
ENDROOT
BRANCH   1  22
HETATM   22  O1  UNL     1      25.731   8.128  49.243  1.00  0.00    -0.357 OA
HETATM   23  C1  UNL     1      26.258   9.186  49.953  1.00  0.00     0.209 C 
ENDBRANCH   1  22
TORSDOF 1
ENDMDL
MODEL 2
REMARK VINA RESULT:      -6.9      3.270      5.611
REMARK  1 active torsions:
REMARK  status: ('A' for Active; 'I' for Inactive)
REMARK    1  A    between atoms: O1_2  and  C2_3 
ROOT
HETATM    1  C2  UNL     1      20.833   1.480  51.569  1.00  0.00     0.079 C 
HETATM    2  C3  UNL     1      20.496   0.579  50.704  1.00  0.00     0.035 C 
HETATM    3  C4  UNL     1      21.073   0.599  49.389  1.00  0.00     0.003 C 
HETATM    4  C5  UNL     1      21.987   1.553  49.134  1.00  0.00     0.011 C 
HETATM    5  C6  UNL     1      22.497   2.591  50.071  1.00  0.00    -0.008 C 
HETATM    6  C7  UNL     1      23.491   3.082  49.344  1.00  0.00     0.094 C 
HETATM    7  N1  UNL     1      24.577   4.070  49.323  1.00  0.00    -0.382 N 
HETATM    8  C8  UNL     1      25.107   3.887  50.752  1.00  0.00     0.101 A 
HETATM    9  C9  UNL     1      26.024   2.920  50.453  1.00  0.00     0.027 A 
HETATM   10  C10 UNL     1      25.888   2.070  51.608  1.00  0.00     0.007 A 
HETATM   11 BR1  UNL     1      26.772   0.519  52.064  1.00  0.00    -0.052 Br
HETATM   12  C11 UNL     1      24.899   2.594  52.480  1.00  0.00     0.012 A 
HETATM   13  C12 UNL     1      24.565   3.645  51.832  1.00  0.00     0.100 A 
HETATM   14  C13 UNL     1      23.256   4.208  51.883  1.00  0.00     0.205 A 
HETATM   15  N2  UNL     1      22.221   5.045  51.723  1.00  0.00    -0.241 NA
HETATM   16  C14 UNL     1      22.395   6.204  51.056  1.00  0.00     0.225 A 
HETATM   17  N3  UNL     1      23.664   5.804  50.892  1.00  0.00    -0.263 NA
HETATM   18  C15 UNL     1      24.087   4.708  51.380  1.00  0.00     0.156 A 
HETATM   19  O2  UNL     1      22.335   3.199  52.466  1.00  0.00    -0.338 OA
HETATM   20  C16 UNL     1      21.705   2.533  51.288  1.00  0.00     0.215 C 
HETATM   21  H8  UNL     1      25.103   4.741  48.895  1.00  0.00     0.160 HD
ENDROOT
BRANCH   1  22
HETATM   22  O1  UNL     1      20.287   1.428  52.830  1.00  0.00    -0.357 OA
HETATM   23  C1  UNL     1      20.434   0.485  53.826  1.00  0.00     0.209 C 
ENDBRANCH   1  22
TORSDOF 1
ENDMDL
MODEL 3
REMARK VINA RESULT:      -6.6      3.052      4.078
REMARK  1 active torsions:
REMARK  status: ('A' for Active; 'I' for Inactive)
REMARK    1  A    between atoms: O1_2  and  C2_3 
ROOT
HETATM    1  C2  UNL     1      23.526   4.827  50.371  1.00  0.00     0.079 C 
HETATM    2  C3  UNL     1      23.511   5.090  49.104  1.00  0.00     0.035 C 
HETATM    3  C4  UNL     1      23.109   4.076  48.169  1.00  0.00     0.003 C 
HETATM    4  C5  UNL     1      22.720   2.892  48.676  1.00  0.00     0.011 C 
HETATM    5  C6  UNL     1      22.632   2.507  50.111  1.00  0.00    -0.008 C 
HETATM    6  C7  UNL     1      22.011   1.342  49.994  1.00  0.00     0.094 C 
HETATM    7  N1  UNL     1      21.463   0.203  50.742  1.00  0.00    -0.382 N 
HETATM    8  C8  UNL     1      20.791   0.963  51.894  1.00  0.00     0.101 A 
HETATM    9  C9  UNL     1      19.574   1.111  51.291  1.00  0.00     0.027 A 
HETATM   10  C10 UNL     1      19.235   2.444  51.718  1.00  0.00     0.007 A 
HETATM   11 BR1  UNL     1      17.734   3.462  51.390  1.00  0.00    -0.052 Br
HETATM   12  C11 UNL     1      20.277   2.974  52.521  1.00  0.00     0.012 A 
HETATM   13  C12 UNL     1      21.084   1.981  52.522  1.00  0.00     0.100 A 
HETATM   14  C13 UNL     1      22.499   2.127  52.623  1.00  0.00     0.205 A 
HETATM   15  N2  UNL     1      23.804   1.849  52.761  1.00  0.00    -0.241 NA
HETATM   16  C14 UNL     1      24.201   0.569  52.906  1.00  0.00     0.225 A 
HETATM   17  N3  UNL     1      22.902   0.256  52.798  1.00  0.00    -0.263 NA
HETATM   18  C15 UNL     1      22.009   1.152  52.660  1.00  0.00     0.156 A 
HETATM   19  O2  UNL     1      22.844   3.546  52.348  1.00  0.00    -0.338 OA
HETATM   20  C16 UNL     1      23.219   3.574  50.905  1.00  0.00     0.215 C 
HETATM   21  H8  UNL     1      21.315  -0.730  50.875  1.00  0.00     0.160 HD
ENDROOT
BRANCH   1  22
HETATM   22  O1  UNL     1      23.890   5.819  51.251  1.00  0.00    -0.357 OA
HETATM   23  C1  UNL     1      24.083   7.169  51.042  1.00  0.00     0.209 C 
ENDBRANCH   1  22
TORSDOF 1
ENDMDL
MODEL 4
REMARK VINA RESULT:      -6.5      3.701      5.305
REMARK  1 active torsions:
REMARK  status: ('A' for Active; 'I' for Inactive)
REMARK    1  A    between atoms: O1_2  and  C2_3 
ROOT
HETATM    1  C2  UNL     1      23.964   3.667  50.541  1.00  0.00     0.079 C 
HETATM    2  C3  UNL     1      24.305   4.581  51.392  1.00  0.00     0.035 C 
HETATM    3  C4  UNL     1      23.345   5.064  52.345  1.00  0.00     0.003 C 
HETATM    4  C5  UNL     1      22.124   4.499  52.328  1.00  0.00     0.011 C 
HETATM    5  C6  UNL     1      21.649   3.399  51.445  1.00  0.00    -0.008 C 
HETATM    6  C7  UNL     1      20.482   3.139  52.017  1.00  0.00     0.094 C 
HETATM    7  N1  UNL     1      19.289   2.286  51.957  1.00  0.00    -0.382 N 
HETATM    8  C8  UNL     1      19.961   0.938  51.664  1.00  0.00     0.101 A 
HETATM    9  C9  UNL     1      20.124   0.562  52.968  1.00  0.00     0.027 A 
HETATM   10  C10 UNL     1      21.421  -0.061  52.897  1.00  0.00     0.007 A 
HETATM   11 BR1  UNL     1      22.430  -0.881  54.203  1.00  0.00    -0.052 Br
HETATM   12  C11 UNL     1      21.919   0.010  51.570  1.00  0.00     0.012 A 
HETATM   13  C12 UNL     1      20.944   0.608  50.998  1.00  0.00     0.100 A 
HETATM   14  C13 UNL     1      21.110   1.471  49.875  1.00  0.00     0.205 A 
HETATM   15  N2  UNL     1      20.847   2.258  48.821  1.00  0.00    -0.241 NA
HETATM   16  C14 UNL     1      19.568   2.492  48.464  1.00  0.00     0.225 A 
HETATM   17  N3  UNL     1      19.239   1.722  49.511  1.00  0.00    -0.263 NA
HETATM   18  C15 UNL     1      20.125   1.174  50.242  1.00  0.00     0.156 A 
HETATM   19  O2  UNL     1      22.549   1.821  49.763  1.00  0.00    -0.338 OA
HETATM   20  C16 UNL     1      22.674   3.140  50.448  1.00  0.00     0.215 C 
HETATM   21  H8  UNL     1      18.346   2.143  52.004  1.00  0.00     0.160 HD
ENDROOT
BRANCH   1  22
HETATM   22  O1  UNL     1      24.905   3.200  49.655  1.00  0.00    -0.357 OA
HETATM   23  C1  UNL     1      26.283   3.249  49.709  1.00  0.00     0.209 C 
ENDBRANCH   1  22
TORSDOF 1
ENDMDL
MODEL 5
REMARK VINA RESULT:      -6.4      8.898     10.235
REMARK  1 active torsions:
REMARK  status: ('A' for Active; 'I' for Inactive)
REMARK    1  A    between atoms: O1_2  and  C2_3 
ROOT
HETATM    1  C2  UNL     1      32.548   6.514  44.008  1.00  0.00     0.079 C 
HETATM    2  C3  UNL     1      32.911   6.216  42.802  1.00  0.00     0.035 C 
HETATM    3  C4  UNL     1      33.999   5.303  42.589  1.00  0.00     0.003 C 
HETATM    4  C5  UNL     1      34.569   4.761  43.681  1.00  0.00     0.011 C 
HETATM    5  C6  UNL     1      34.188   4.978  45.103  1.00  0.00    -0.008 C 
HETATM    6  C7  UNL     1      34.939   4.052  45.682  1.00  0.00     0.094 C 
HETATM    7  N1  UNL     1      35.301   3.444  46.968  1.00  0.00    -0.382 N 
HETATM    8  C8  UNL     1      33.907   3.362  47.605  1.00  0.00     0.101 A 
HETATM    9  C9  UNL     1      33.600   2.115  47.140  1.00  0.00     0.027 A 
HETATM   10  C10 UNL     1      32.204   2.292  46.830  1.00  0.00     0.007 A 
HETATM   11 BR1  UNL     1      30.964   1.103  46.165  1.00  0.00    -0.052 Br
HETATM   12  C11 UNL     1      31.809   3.623  47.123  1.00  0.00     0.012 A 
HETATM   13  C12 UNL     1      32.914   4.090  47.568  1.00  0.00     0.100 A 
HETATM   14  C13 UNL     1      33.291   5.459  47.435  1.00  0.00     0.205 A 
HETATM   15  N2  UNL     1      33.950   6.619  47.568  1.00  0.00    -0.241 NA
HETATM   16  C14 UNL     1      35.064   6.671  48.328  1.00  0.00     0.225 A 
HETATM   17  N3  UNL     1      34.868   5.361  48.531  1.00  0.00    -0.263 NA
HETATM   18  C15 UNL     1      33.871   4.749  48.030  1.00  0.00     0.156 A 
HETATM   19  O2  UNL     1      32.410   6.090  46.419  1.00  0.00    -0.338 OA
HETATM   20  C16 UNL     1      33.192   6.036  45.150  1.00  0.00     0.215 C 
HETATM   21  H8  UNL     1      35.933   3.088  47.588  1.00  0.00     0.160 HD
ENDROOT
BRANCH   1  22
HETATM   22  O1  UNL     1      31.488   7.371  44.190  1.00  0.00    -0.357 OA
HETATM   23  C1  UNL     1      31.440   8.750  44.156  1.00  0.00     0.209 C 
ENDBRANCH   1  22
TORSDOF 1
ENDMDL
MODEL 6
REMARK VINA RESULT:      -6.4      3.398      5.522
REMARK  1 active torsions:
REMARK  status: ('A' for Active; 'I' for Inactive)
REMARK    1  A    between atoms: O1_2  and  C2_3 
ROOT
HETATM    1  C2  UNL     1      23.468  -0.003  53.063  1.00  0.00     0.079 C 
HETATM    2  C3  UNL     1      22.505  -0.845  53.263  1.00  0.00     0.035 C 
HETATM    3  C4  UNL     1      21.142  -0.395  53.218  1.00  0.00     0.003 C 
HETATM    4  C5  UNL     1      20.932   0.901  52.923  1.00  0.00     0.011 C 
HETATM    5  C6  UNL     1      21.956   1.934  52.608  1.00  0.00    -0.008 C 
HETATM    6  C7  UNL     1      21.165   2.921  52.210  1.00  0.00     0.094 C 
HETATM    7  N1  UNL     1      21.141   4.299  51.705  1.00  0.00    -0.382 N 
HETATM    8  C8  UNL     1      22.304   4.218  50.706  1.00  0.00     0.101 A 
HETATM    9  C9  UNL     1      21.553   3.844  49.627  1.00  0.00     0.027 A 
HETATM   10  C10 UNL     1      22.446   2.898  49.008  1.00  0.00     0.007 A 
HETATM   11 BR1  UNL     1      22.258   1.907  47.466  1.00  0.00    -0.052 Br
HETATM   12  C11 UNL     1      23.635   2.782  49.773  1.00  0.00     0.012 A 
HETATM   13  C12 UNL     1      23.381   3.619  50.706  1.00  0.00     0.100 A 
HETATM   14  C13 UNL     1      23.888   3.486  52.032  1.00  0.00     0.205 A 
HETATM   15  N2  UNL     1      24.204   3.746  53.309  1.00  0.00    -0.241 NA
HETATM   16  C14 UNL     1      23.839   4.920  53.862  1.00  0.00     0.225 A 
HETATM   17  N3  UNL     1      23.278   5.191  52.675  1.00  0.00    -0.263 NA
HETATM   18  C15 UNL     1      23.349   4.376  51.701  1.00  0.00     0.156 A 
HETATM   19  O2  UNL     1      24.392   2.099  52.203  1.00  0.00    -0.338 OA
HETATM   20  C16 UNL     1      23.269   1.362  52.852  1.00  0.00     0.215 C 
HETATM   21  H8  UNL     1      20.789   5.186  51.678  1.00  0.00     0.160 HD
ENDROOT
BRANCH   1  22
HETATM   22  O1  UNL     1      24.764  -0.460  53.086  1.00  0.00    -0.357 OA
HETATM   23  C1  UNL     1      25.658  -0.554  54.133  1.00  0.00     0.209 C 
ENDBRANCH   1  22
TORSDOF 1
ENDMDL
MODEL 7
REMARK VINA RESULT:      -6.4      7.981     10.351
REMARK  1 active torsions:
REMARK  status: ('A' for Active; 'I' for Inactive)
REMARK    1  A    between atoms: O1_2  and  C2_3 
ROOT
HETATM    1  C2  UNL     1      34.070   4.692  45.050  1.00  0.00     0.079 C 
HETATM    2  C3  UNL     1      34.542   3.618  45.597  1.00  0.00     0.035 C 
HETATM    3  C4  UNL     1      34.884   3.618  46.992  1.00  0.00     0.003 C 
HETATM    4  C5  UNL     1      34.653   4.750  47.681  1.00  0.00     0.011 C 
HETATM    5  C6  UNL     1      34.053   6.013  47.171  1.00  0.00    -0.008 C 
HETATM    6  C7  UNL     1      33.890   6.663  48.315  1.00  0.00     0.094 C 
HETATM    7  N1  UNL     1      33.404   7.910  48.918  1.00  0.00    -0.382 N 
HETATM    8  C8  UNL     1      32.116   8.095  48.104  1.00  0.00     0.101 A 
HETATM    9  C9  UNL     1      31.298   7.403  48.953  1.00  0.00     0.027 A 
HETATM   10  C10 UNL     1      30.456   6.723  48.002  1.00  0.00     0.007 A 
HETATM   11 BR1  UNL     1      29.038   5.577  48.264  1.00  0.00    -0.052 Br
HETATM   12  C11 UNL     1      30.852   7.056  46.681  1.00  0.00     0.012 A 
HETATM   13  C12 UNL     1      31.814   7.861  46.933  1.00  0.00     0.100 A 
HETATM   14  C13 UNL     1      32.941   8.021  46.075  1.00  0.00     0.205 A 
HETATM   15  N2  UNL     1      34.074   8.490  45.530  1.00  0.00    -0.241 NA
HETATM   16  C14 UNL     1      34.700   9.543  46.095  1.00  0.00     0.225 A 
HETATM   17  N3  UNL     1      33.721   9.509  47.009  1.00  0.00    -0.263 NA
HETATM   18  C15 UNL     1      32.772   8.664  46.941  1.00  0.00     0.156 A 
HETATM   19  O2  UNL     1      32.969   6.882  45.122  1.00  0.00    -0.338 OA
HETATM   20  C16 UNL     1      33.916   5.902  45.729  1.00  0.00     0.215 C 
HETATM   21  H8  UNL     1      33.474   8.637  49.533  1.00  0.00     0.160 HD
ENDROOT
BRANCH   1  22
HETATM   22  O1  UNL     1      33.726   4.663  43.719  1.00  0.00    -0.357 OA
HETATM   23  C1  UNL     1      34.434   5.066  42.605  1.00  0.00     0.209 C 
ENDBRANCH   1  22
TORSDOF 1
ENDMDL
MODEL 8
REMARK VINA RESULT:      -6.3      3.171      5.027
REMARK  1 active torsions:
REMARK  status: ('A' for Active; 'I' for Inactive)
REMARK    1  A    between atoms: O1_2  and  C2_3 
ROOT
HETATM    1  C2  UNL     1      20.554   3.136  48.945  1.00  0.00     0.079 C 
HETATM    2  C3  UNL     1      20.776   2.388  47.912  1.00  0.00     0.035 C 
HETATM    3  C4  UNL     1      22.126   2.120  47.501  1.00  0.00     0.003 C 
HETATM    4  C5  UNL     1      23.112   2.641  48.253  1.00  0.00     0.011 C 
HETATM    5  C6  UNL     1      22.972   3.452  49.493  1.00  0.00    -0.008 C 
HETATM    6  C7  UNL     1      24.239   3.492  49.881  1.00  0.00     0.094 C 
HETATM    7  N1  UNL     1      25.154   3.990  50.915  1.00  0.00    -0.382 N 
HETATM    8  C8  UNL     1      24.306   3.693  52.160  1.00  0.00     0.101 A 
HETATM    9  C9  UNL     1      24.794   2.435  52.381  1.00  0.00     0.027 A 
HETATM   10  C10 UNL     1      23.589   1.760  52.792  1.00  0.00     0.007 A 
HETATM   11 BR1  UNL     1      23.313   0.015  53.314  1.00  0.00    -0.052 Br
HETATM   12  C11 UNL     1      22.496   2.664  52.768  1.00  0.00     0.012 A 
HETATM   13  C12 UNL     1      23.097   3.729  52.390  1.00  0.00     0.100 A 
HETATM   14  C13 UNL     1      22.463   4.749  51.621  1.00  0.00     0.205 A 
HETATM   15  N2  UNL     1      22.225   5.908  50.989  1.00  0.00    -0.241 NA
HETATM   16  C14 UNL     1      23.162   6.878  50.997  1.00  0.00     0.225 A 
HETATM   17  N3  UNL     1      23.905   6.018  51.708  1.00  0.00    -0.263 NA
HETATM   18  C15 UNL     1      23.466   4.870  52.036  1.00  0.00     0.156 A 
HETATM   19  O2  UNL     1      21.204   4.197  51.058  1.00  0.00    -0.338 OA
HETATM   20  C16 UNL     1      21.564   3.762  49.677  1.00  0.00     0.215 C 
HETATM   21  H8  UNL     1      25.973   4.388  51.202  1.00  0.00     0.160 HD
ENDROOT
BRANCH   1  22
HETATM   22  O1  UNL     1      19.255   3.359  49.337  1.00  0.00    -0.357 OA
HETATM   23  C1  UNL     1      18.186   2.490  49.416  1.00  0.00     0.209 C 
ENDBRANCH   1  22
TORSDOF 1
ENDMDL
MODEL 9
REMARK VINA RESULT:      -6.3      4.728      7.286
REMARK  1 active torsions:
REMARK  status: ('A' for Active; 'I' for Inactive)
REMARK    1  A    between atoms: O1_2  and  C2_3 
ROOT
HETATM    1  C2  UNL     1      17.400   1.204  50.997  1.00  0.00     0.079 C 
HETATM    2  C3  UNL     1      16.703   2.274  50.787  1.00  0.00     0.035 C 
HETATM    3  C4  UNL     1      17.243   3.558  51.138  1.00  0.00     0.003 C 
HETATM    4  C5  UNL     1      18.491   3.583  51.640  1.00  0.00     0.011 C 
HETATM    5  C6  UNL     1      19.403   2.427  51.857  1.00  0.00    -0.008 C 
HETATM    6  C7  UNL     1      20.519   3.073  52.160  1.00  0.00     0.094 C 
HETATM    7  N1  UNL     1      21.933   2.907  52.518  1.00  0.00    -0.382 N 
HETATM    8  C8  UNL     1      22.308   1.789  51.535  1.00  0.00     0.101 A 
HETATM    9  C9  UNL     1      22.697   2.609  50.512  1.00  0.00     0.027 A 
HETATM   10  C10 UNL     1      22.180   1.877  49.385  1.00  0.00     0.007 A 
HETATM   11 BR1  UNL     1      22.267   2.239  47.580  1.00  0.00    -0.052 Br
HETATM   12  C11 UNL     1      21.522   0.702  49.831  1.00  0.00     0.012 A 
HETATM   13  C12 UNL     1      21.703   0.811  51.093  1.00  0.00     0.100 A 
HETATM   14  C13 UNL     1      20.786   0.301  52.058  1.00  0.00     0.205 A 
HETATM   15  N2  UNL     1      20.239  -0.076  53.224  1.00  0.00    -0.241 NA
HETATM   16  C14 UNL     1      20.923   0.103  54.372  1.00  0.00     0.225 A 
HETATM   17  N3  UNL     1      21.879   0.643  53.603  1.00  0.00    -0.263 NA
HETATM   18  C15 UNL     1      21.759   0.712  52.338  1.00  0.00     0.156 A 
HETATM   19  O2  UNL     1      19.503   0.001  51.373  1.00  0.00    -0.338 OA
HETATM   20  C16 UNL     1      18.655   1.206  51.607  1.00  0.00     0.215 C 
HETATM   21  H8  UNL     1      22.710   3.127  53.027  1.00  0.00     0.160 HD
ENDROOT
BRANCH   1  22
HETATM   22  O1  UNL     1      16.874  -0.013  50.631  1.00  0.00    -0.357 OA
HETATM   23  C1  UNL     1      16.288  -0.411  49.447  1.00  0.00     0.209 C 
ENDBRANCH   1  22
TORSDOF 1
ENDMDL
