MODEL 1
REMARK VINA RESULT:      -9.6      0.000      0.000
REMARK  5 active torsions:
REMARK  status: ('A' for Active; 'I' for Inactive)
REMARK    1  A    between atoms: C7_7  and  C8_8 
REMARK    2  A    between atoms: C10_10  and  N1_11 
REMARK    3  A    between atoms: N1_11  and  C11_12 
REMARK    4  A    between atoms: C14_15  and  N2_16 
REMARK    5  A    between atoms: C21_24  and  O1_25 
ROOT
HETATM    1  N1  UNL     1      22.105   4.323  51.798  1.00  0.00    -0.371 N 
HETATM    2  H10 UNL     1      21.490   4.778  52.539  1.00  0.00     0.161 HD
ENDROOT
BRANCH   1   3
HETATM    3  C10 UNL     1      21.968   4.778  50.411  1.00  0.00     0.198 C 
HETATM    4  C9  UNL     1      23.301   4.722  49.763  1.00  0.00     0.017 C 
HETATM    5  C8  UNL     1      24.314   5.527  49.880  1.00  0.00    -0.031 C 
HETATM    6  C23 UNL     1      23.954   6.637  50.806  1.00  0.00     0.161 C 
HETATM    7  N4  UNL     1      22.571   6.978  50.856  1.00  0.00    -0.355 N 
HETATM    8  C22 UNL     1      21.472   6.192  50.368  1.00  0.00     0.244 C 
HETATM    9  H26 UNL     1      22.416   7.922  51.312  1.00  0.00     0.162 HD
HETATM   10  O2  UNL     1      20.478   6.942  50.073  1.00  0.00    -0.271 OA
BRANCH   5  11
HETATM   11  C7  UNL     1      25.631   5.517  49.267  1.00  0.00    -0.023 A 
HETATM   12  C2  UNL     1      26.611   4.590  49.229  1.00  0.00    -0.051 A 
HETATM   13  C1  UNL     1      26.346   3.260  49.767  1.00  0.00     0.049 C 
HETATM   14  C3  UNL     1      27.847   4.816  48.665  1.00  0.00     0.007 A 
HETATM   15  C4  UNL     1      28.162   6.023  48.095  1.00  0.00     0.001 A 
HETATM   16  C5  UNL     1      27.200   6.999  48.107  1.00  0.00     0.001 A 
HETATM   17  C6  UNL     1      25.997   6.736  48.671  1.00  0.00     0.012 A 
ENDBRANCH   5  11
ENDBRANCH   1   3
BRANCH   1  18
HETATM   18  C11 UNL     1      22.995   3.323  52.221  1.00  0.00     0.062 A 
HETATM   19  C12 UNL     1      22.928   2.009  51.821  1.00  0.00     0.034 A 
HETATM   20  C13 UNL     1      23.792   1.018  52.232  1.00  0.00     0.031 A 
HETATM   21  C14 UNL     1      24.811   1.314  53.106  1.00  0.00     0.033 A 
HETATM   22  C20 UNL     1      24.905   2.613  53.525  1.00  0.00     0.068 A 
HETATM   23  C21 UNL     1      24.022   3.602  53.097  1.00  0.00     0.094 A 
BRANCH  21  24
HETATM   24  N2  UNL     1      25.745   0.352  53.581  1.00  0.00    -0.377 N 
HETATM   25  C15 UNL     1      26.447   0.326  54.848  1.00  0.00     0.153 C 
HETATM   26  C16 UNL     1      27.942   0.357  54.604  1.00  0.00     0.291 C 
HETATM   27  N3  UNL     1      28.349  -0.850  53.894  1.00  0.00     0.087 N 
HETATM   28  C17 UNL     1      29.795  -0.733  53.692  1.00  0.00     0.310 C 
HETATM   29  C18 UNL     1      27.672  -0.872  52.634  1.00  0.00     0.291 C 
HETATM   30  C19 UNL     1      26.176  -0.807  52.869  1.00  0.00     0.153 C 
ENDBRANCH  21  24
BRANCH  23  31
HETATM   31  O1  UNL     1      24.140   4.934  53.542  1.00  0.00    -0.358 OA
HETATM   32  H25 UNL     1      24.098   5.685  52.867  1.00  0.00     0.217 HD
ENDBRANCH  23  31
ENDBRANCH   1  18
TORSDOF 5
ENDMDL
MODEL 2
REMARK VINA RESULT:      -9.1      3.102      8.197
REMARK  5 active torsions:
REMARK  status: ('A' for Active; 'I' for Inactive)
REMARK    1  A    between atoms: C7_7  and  C8_8 
REMARK    2  A    between atoms: C10_10  and  N1_11 
REMARK    3  A    between atoms: N1_11  and  C11_12 
REMARK    4  A    between atoms: C14_15  and  N2_16 
REMARK    5  A    between atoms: C21_24  and  O1_25 
ROOT
HETATM    1  N1  UNL     1      24.456   4.070  50.567  1.00  0.00    -0.371 N 
HETATM    2  H10 UNL     1      23.443   4.221  50.859  1.00  0.00     0.161 HD
ENDROOT
BRANCH   1   3
HETATM    3  C10 UNL     1      25.004   2.713  50.654  1.00  0.00     0.198 C 
HETATM    4  C9  UNL     1      23.965   1.820  51.225  1.00  0.00     0.017 C 
HETATM    5  C8  UNL     1      23.569   1.691  52.455  1.00  0.00    -0.031 C 
HETATM    6  C23 UNL     1      24.362   2.604  53.325  1.00  0.00     0.161 C 
HETATM    7  N4  UNL     1      25.680   2.905  52.869  1.00  0.00    -0.355 N 
HETATM    8  C22 UNL     1      26.205   2.687  51.550  1.00  0.00     0.244 C 
HETATM    9  H26 UNL     1      26.273   3.328  53.638  1.00  0.00     0.162 HD
HETATM   10  O2  UNL     1      27.477   2.549  51.589  1.00  0.00    -0.271 OA
BRANCH   5  11
HETATM   11  C7  UNL     1      22.565   0.834  53.062  1.00  0.00    -0.023 A 
HETATM   12  C2  UNL     1      21.236   0.978  53.244  1.00  0.00    -0.051 A 
HETATM   13  C1  UNL     1      20.559   2.120  52.640  1.00  0.00     0.049 C 
HETATM   14  C3  UNL     1      20.464   0.074  53.941  1.00  0.00     0.007 A 
HETATM   15  C4  UNL     1      21.014  -1.051  54.501  1.00  0.00     0.001 A 
HETATM   16  C5  UNL     1      22.361  -1.245  54.342  1.00  0.00     0.001 A 
HETATM   17  C6  UNL     1      23.083  -0.332  53.650  1.00  0.00     0.012 A 
ENDBRANCH   5  11
ENDBRANCH   1   3
BRANCH   1  18
HETATM   18  C11 UNL     1      25.177   5.191  50.125  1.00  0.00     0.062 A 
HETATM   19  C12 UNL     1      26.058   5.175  49.069  1.00  0.00     0.034 A 
HETATM   20  C13 UNL     1      26.775   6.266  48.629  1.00  0.00     0.031 A 
HETATM   21  C14 UNL     1      26.633   7.480  49.258  1.00  0.00     0.033 A 
HETATM   22  C20 UNL     1      25.763   7.529  50.313  1.00  0.00     0.068 A 
HETATM   23  C21 UNL     1      25.047   6.415  50.744  1.00  0.00     0.094 A 
BRANCH  21  24
HETATM   24  N2  UNL     1      27.334   8.655  48.868  1.00  0.00    -0.377 N 
HETATM   25  C15 UNL     1      27.380   9.287  47.565  1.00  0.00     0.153 C 
HETATM   26  C16 UNL     1      28.811   9.333  47.070  1.00  0.00     0.291 C 
HETATM   27  N3  UNL     1      29.610  10.175  47.954  1.00  0.00     0.087 N 
HETATM   28  C17 UNL     1      30.970  10.155  47.411  1.00  0.00     0.310 C 
HETATM   29  C18 UNL     1      29.588   9.592  49.259  1.00  0.00     0.291 C 
HETATM   30  C19 UNL     1      28.151   9.455  49.722  1.00  0.00     0.153 C 
ENDBRANCH  21  24
BRANCH  23  31
HETATM   31  O1  UNL     1      24.156   6.491  51.833  1.00  0.00    -0.358 OA
HETATM   32  H25 UNL     1      23.386   5.838  51.886  1.00  0.00     0.217 HD
ENDBRANCH  23  31
ENDBRANCH   1  18
TORSDOF 5
ENDMDL
MODEL 3
REMARK VINA RESULT:      -8.9      4.298      7.885
REMARK  5 active torsions:
REMARK  status: ('A' for Active; 'I' for Inactive)
REMARK    1  A    between atoms: C7_7  and  C8_8 
REMARK    2  A    between atoms: C10_10  and  N1_11 
REMARK    3  A    between atoms: N1_11  and  C11_12 
REMARK    4  A    between atoms: C14_15  and  N2_16 
REMARK    5  A    between atoms: C21_24  and  O1_25 
ROOT
HETATM    1  N1  UNL     1      23.073   1.071  52.808  1.00  0.00    -0.371 N 
HETATM    2  H10 UNL     1      23.378   0.919  53.817  1.00  0.00     0.161 HD
ENDROOT
BRANCH   1   3
HETATM    3  C10 UNL     1      24.047   1.631  51.867  1.00  0.00     0.198 C 
HETATM    4  C9  UNL     1      25.310   0.861  51.983  1.00  0.00     0.017 C 
HETATM    5  C8  UNL     1      26.231   0.913  52.898  1.00  0.00    -0.031 C 
HETATM    6  C23 UNL     1      25.863   1.945  53.907  1.00  0.00     0.161 C 
HETATM    7  N4  UNL     1      25.063   3.023  53.426  1.00  0.00    -0.355 N 
HETATM    8  C22 UNL     1      24.328   3.066  52.193  1.00  0.00     0.244 C 
HETATM    9  H26 UNL     1      25.058   3.839  54.102  1.00  0.00     0.162 HD
HETATM   10  O2  UNL     1      24.169   4.276  51.806  1.00  0.00    -0.271 OA
BRANCH   5  11
HETATM   11  C7  UNL     1      27.480   0.187  53.054  1.00  0.00    -0.023 A 
HETATM   12  C2  UNL     1      27.788  -1.124  52.968  1.00  0.00    -0.051 A 
HETATM   13  C1  UNL     1      26.767  -2.061  52.511  1.00  0.00     0.049 C 
HETATM   14  C3  UNL     1      29.039  -1.629  53.249  1.00  0.00     0.007 A 
HETATM   15  C4  UNL     1      30.068  -0.810  53.639  1.00  0.00     0.001 A 
HETATM   16  C5  UNL     1      29.806   0.531  53.740  1.00  0.00     0.001 A 
HETATM   17  C6  UNL     1      28.563   0.986  53.455  1.00  0.00     0.012 A 
ENDBRANCH   5  11
ENDBRANCH   1   3
BRANCH   1  18
HETATM   18  C11 UNL     1      21.756   0.718  52.472  1.00  0.00     0.062 A 
HETATM   19  C12 UNL     1      21.209   0.877  51.220  1.00  0.00     0.034 A 
HETATM   20  C13 UNL     1      19.917   0.541  50.879  1.00  0.00     0.031 A 
HETATM   21  C14 UNL     1      19.076   0.002  51.823  1.00  0.00     0.033 A 
HETATM   22  C20 UNL     1      19.589  -0.169  53.080  1.00  0.00     0.068 A 
HETATM   23  C21 UNL     1      20.898   0.178  53.406  1.00  0.00     0.094 A 
BRANCH  21  24
HETATM   24  N2  UNL     1      17.730  -0.373  51.555  1.00  0.00    -0.377 N 
HETATM   25  C15 UNL     1      16.991  -0.255  50.314  1.00  0.00     0.153 C 
HETATM   26  C16 UNL     1      15.776   0.624  50.525  1.00  0.00     0.291 C 
HETATM   27  N3  UNL     1      14.868  -0.012  51.474  1.00  0.00     0.087 N 
HETATM   28  C17 UNL     1      13.735   0.904  51.626  1.00  0.00     0.310 C 
HETATM   29  C18 UNL     1      15.560  -0.156  52.718  1.00  0.00     0.291 C 
HETATM   30  C19 UNL     1      16.828  -0.955  52.495  1.00  0.00     0.153 C 
ENDBRANCH  21  24
BRANCH  23  31
HETATM   31  O1  UNL     1      21.405  -0.008  54.708  1.00  0.00    -0.358 OA
HETATM   32  H25 UNL     1      20.759  -0.101  55.479  1.00  0.00     0.217 HD
ENDBRANCH  23  31
ENDBRANCH   1  18
TORSDOF 5
ENDMDL
MODEL 4
REMARK VINA RESULT:      -8.9      2.816      7.950
REMARK  5 active torsions:
REMARK  status: ('A' for Active; 'I' for Inactive)
REMARK    1  A    between atoms: C7_7  and  C8_8 
REMARK    2  A    between atoms: C10_10  and  N1_11 
REMARK    3  A    between atoms: N1_11  and  C11_12 
REMARK    4  A    between atoms: C14_15  and  N2_16 
REMARK    5  A    between atoms: C21_24  and  O1_25 
ROOT
HETATM    1  N1  UNL     1      26.115   3.539  51.201  1.00  0.00    -0.371 N 
HETATM    2  H10 UNL     1      26.718   4.381  51.449  1.00  0.00     0.161 HD
ENDROOT
BRANCH   1   3
HETATM    3  C10 UNL     1      26.648   2.202  51.477  1.00  0.00     0.198 C 
HETATM    4  C9  UNL     1      25.513   1.301  51.801  1.00  0.00     0.017 C 
HETATM    5  C8  UNL     1      24.821   1.202  52.896  1.00  0.00    -0.031 C 
HETATM    6  C23 UNL     1      25.351   2.166  53.900  1.00  0.00     0.161 C 
HETATM    7  N4  UNL     1      26.735   2.486  53.781  1.00  0.00    -0.355 N 
HETATM    8  C22 UNL     1      27.582   2.238  52.648  1.00  0.00     0.244 C 
HETATM    9  H26 UNL     1      27.106   2.952  54.658  1.00  0.00     0.162 HD
HETATM   10  O2  UNL     1      28.804   2.137  53.013  1.00  0.00    -0.271 OA
BRANCH   5  11
HETATM   11  C7  UNL     1      23.711   0.340  53.261  1.00  0.00    -0.023 A 
HETATM   12  C2  UNL     1      22.451   0.227  52.790  1.00  0.00    -0.051 A 
HETATM   13  C1  UNL     1      22.072   0.983  51.602  1.00  0.00     0.049 C 
HETATM   14  C3  UNL     1      21.505  -0.604  53.348  1.00  0.00     0.007 A 
HETATM   15  C4  UNL     1      21.794  -1.384  54.439  1.00  0.00     0.001 A 
HETATM   16  C5  UNL     1      23.061  -1.308  54.954  1.00  0.00     0.001 A 
HETATM   17  C6  UNL     1      23.961  -0.478  54.376  1.00  0.00     0.012 A 
ENDBRANCH   5  11
ENDBRANCH   1   3
BRANCH   1  18
HETATM   18  C11 UNL     1      24.858   3.791  50.627  1.00  0.00     0.062 A 
HETATM   19  C12 UNL     1      24.470   3.339  49.388  1.00  0.00     0.034 A 
HETATM   20  C13 UNL     1      23.242   3.583  48.813  1.00  0.00     0.031 A 
HETATM   21  C14 UNL     1      22.303   4.327  49.487  1.00  0.00     0.033 A 
HETATM   22  C20 UNL     1      22.659   4.793  50.724  1.00  0.00     0.068 A 
HETATM   23  C21 UNL     1      23.906   4.535  51.289  1.00  0.00     0.094 A 
BRANCH  21  24
HETATM   24  N2  UNL     1      21.013   4.626  48.967  1.00  0.00    -0.377 N 
HETATM   25  C15 UNL     1      20.044   5.586  49.455  1.00  0.00     0.153 C 
HETATM   26  C16 UNL     1      18.760   4.871  49.825  1.00  0.00     0.291 C 
HETATM   27  N3  UNL     1      18.169   4.275  48.632  1.00  0.00     0.087 N 
HETATM   28  C17 UNL     1      16.948   3.602  49.078  1.00  0.00     0.310 C 
HETATM   29  C18 UNL     1      19.098   3.322  48.108  1.00  0.00     0.291 C 
HETATM   30  C19 UNL     1      20.417   4.012  47.825  1.00  0.00     0.153 C 
ENDBRANCH  21  24
BRANCH  23  31
HETATM   31  O1  UNL     1      24.249   5.025  52.566  1.00  0.00    -0.358 OA
HETATM   32  H25 UNL     1      24.708   4.410  53.222  1.00  0.00     0.217 HD
ENDBRANCH  23  31
ENDBRANCH   1  18
TORSDOF 5
ENDMDL
MODEL 5
REMARK VINA RESULT:      -8.7      2.467      7.133
REMARK  5 active torsions:
REMARK  status: ('A' for Active; 'I' for Inactive)
REMARK    1  A    between atoms: C7_7  and  C8_8 
REMARK    2  A    between atoms: C10_10  and  N1_11 
REMARK    3  A    between atoms: N1_11  and  C11_12 
REMARK    4  A    between atoms: C14_15  and  N2_16 
REMARK    5  A    between atoms: C21_24  and  O1_25 
ROOT
HETATM    1  N1  UNL     1      22.578   4.754  50.745  1.00  0.00    -0.371 N 
HETATM    2  H10 UNL     1      21.864   4.560  49.979  1.00  0.00     0.161 HD
ENDROOT
BRANCH   1   3
HETATM    3  C10 UNL     1      22.323   4.209  52.082  1.00  0.00     0.198 C 
HETATM    4  C9  UNL     1      23.455   3.324  52.453  1.00  0.00     0.017 C 
HETATM    5  C8  UNL     1      23.725   2.116  52.061  1.00  0.00    -0.031 C 
HETATM    6  C23 UNL     1      22.663   1.654  51.124  1.00  0.00     0.161 C 
HETATM    7  N4  UNL     1      21.373   2.230  51.320  1.00  0.00    -0.355 N 
HETATM    8  C22 UNL     1      21.061   3.402  52.089  1.00  0.00     0.244 C 
HETATM    9  H26 UNL     1      20.619   1.682  50.816  1.00  0.00     0.162 HD
HETATM   10  O2  UNL     1      19.851   3.359  52.504  1.00  0.00    -0.271 OA
BRANCH   5  11
HETATM   11  C7  UNL     1      24.812   1.212  52.396  1.00  0.00    -0.023 A 
HETATM   12  C2  UNL     1      26.079   1.104  51.944  1.00  0.00    -0.051 A 
HETATM   13  C1  UNL     1      26.594   2.123  51.036  1.00  0.00     0.049 C 
HETATM   14  C3  UNL     1      26.938   0.098  52.330  1.00  0.00     0.007 A 
HETATM   15  C4  UNL     1      26.548  -0.873  53.217  1.00  0.00     0.001 A 
HETATM   16  C5  UNL     1      25.271  -0.807  53.707  1.00  0.00     0.001 A 
HETATM   17  C6  UNL     1      24.458   0.198  53.302  1.00  0.00     0.012 A 
ENDBRANCH   5  11
ENDBRANCH   1   3
BRANCH   1  18
HETATM   18  C11 UNL     1      23.704   5.520  50.401  1.00  0.00     0.062 A 
HETATM   19  C12 UNL     1      24.815   5.018  49.766  1.00  0.00     0.034 A 
HETATM   20  C13 UNL     1      25.928   5.757  49.428  1.00  0.00     0.031 A 
HETATM   21  C14 UNL     1      25.977   7.098  49.726  1.00  0.00     0.033 A 
HETATM   22  C20 UNL     1      24.887   7.629  50.359  1.00  0.00     0.068 A 
HETATM   23  C21 UNL     1      23.771   6.865  50.694  1.00  0.00     0.094 A 
BRANCH  21  24
HETATM   24  N2  UNL     1      27.086   7.933  49.413  1.00  0.00    -0.377 N 
HETATM   25  C15 UNL     1      27.465   9.193  50.020  1.00  0.00     0.153 C 
HETATM   26  C16 UNL     1      27.475  10.283  48.968  1.00  0.00     0.291 C 
HETATM   27  N3  UNL     1      28.499   9.993  47.970  1.00  0.00     0.087 N 
HETATM   28  C17 UNL     1      28.432  11.083  46.994  1.00  0.00     0.310 C 
HETATM   29  C18 UNL     1      28.169   8.749  47.347  1.00  0.00     0.291 C 
HETATM   30  C19 UNL     1      28.063   7.671  48.408  1.00  0.00     0.153 C 
ENDBRANCH  21  24
BRANCH  23  31
HETATM   31  O1  UNL     1      22.659   7.435  51.345  1.00  0.00    -0.358 OA
HETATM   32  H25 UNL     1      21.732   7.110  51.112  1.00  0.00     0.217 HD
ENDBRANCH  23  31
ENDBRANCH   1  18
TORSDOF 5
ENDMDL
MODEL 6
REMARK VINA RESULT:      -8.7      2.437      6.828
REMARK  5 active torsions:
REMARK  status: ('A' for Active; 'I' for Inactive)
REMARK    1  A    between atoms: C7_7  and  C8_8 
REMARK    2  A    between atoms: C10_10  and  N1_11 
REMARK    3  A    between atoms: N1_11  and  C11_12 
REMARK    4  A    between atoms: C14_15  and  N2_16 
REMARK    5  A    between atoms: C21_24  and  O1_25 
ROOT
HETATM    1  N1  UNL     1      22.543   4.642  50.660  1.00  0.00    -0.371 N 
HETATM    2  H10 UNL     1      21.768   4.380  49.978  1.00  0.00     0.161 HD
ENDROOT
BRANCH   1   3
HETATM    3  C10 UNL     1      22.414   4.207  52.054  1.00  0.00     0.198 C 
HETATM    4  C9  UNL     1      23.570   3.338  52.385  1.00  0.00     0.017 C 
HETATM    5  C8  UNL     1      23.793   2.099  52.066  1.00  0.00    -0.031 C 
HETATM    6  C23 UNL     1      22.642   1.581  51.274  1.00  0.00     0.161 C 
HETATM    7  N4  UNL     1      21.381   2.189  51.545  1.00  0.00    -0.355 N 
HETATM    8  C22 UNL     1      21.152   3.422  52.245  1.00  0.00     0.244 C 
HETATM    9  H26 UNL     1      20.579   1.613  51.160  1.00  0.00     0.162 HD
HETATM   10  O2  UNL     1      19.987   3.428  52.775  1.00  0.00    -0.271 OA
BRANCH   5  11
HETATM   11  C7  UNL     1      24.901   1.209  52.367  1.00  0.00    -0.023 A 
HETATM   12  C2  UNL     1      26.164   1.136  51.898  1.00  0.00    -0.051 A 
HETATM   13  C1  UNL     1      26.648   2.185  51.008  1.00  0.00     0.049 C 
HETATM   14  C3  UNL     1      27.046   0.138  52.250  1.00  0.00     0.007 A 
HETATM   15  C4  UNL     1      26.686  -0.860  53.119  1.00  0.00     0.001 A 
HETATM   16  C5  UNL     1      25.414  -0.830  53.625  1.00  0.00     0.001 A 
HETATM   17  C6  UNL     1      24.577   0.168  53.254  1.00  0.00     0.012 A 
ENDBRANCH   5  11
ENDBRANCH   1   3
BRANCH   1  18
HETATM   18  C11 UNL     1      23.623   5.386  50.157  1.00  0.00     0.062 A 
HETATM   19  C12 UNL     1      24.628   4.860  49.380  1.00  0.00     0.034 A 
HETATM   20  C13 UNL     1      25.695   5.578  48.885  1.00  0.00     0.031 A 
HETATM   21  C14 UNL     1      25.806   6.920  49.160  1.00  0.00     0.033 A 
HETATM   22  C20 UNL     1      24.822   7.474  49.932  1.00  0.00     0.068 A 
HETATM   23  C21 UNL     1      23.750   6.732  50.424  1.00  0.00     0.094 A 
BRANCH  21  24
HETATM   24  N2  UNL     1      26.874   7.734  48.689  1.00  0.00    -0.377 N 
HETATM   25  C15 UNL     1      27.956   7.373  47.796  1.00  0.00     0.153 C 
HETATM   26  C16 UNL     1      29.285   7.571  48.497  1.00  0.00     0.291 C 
HETATM   27  N3  UNL     1      29.471   8.985  48.804  1.00  0.00     0.087 N 
HETATM   28  C17 UNL     1      30.765   9.084  49.484  1.00  0.00     0.310 C 
HETATM   29  C18 UNL     1      28.417   9.390  49.682  1.00  0.00     0.291 C 
HETATM   30  C19 UNL     1      27.082   9.105  49.024  1.00  0.00     0.153 C 
ENDBRANCH  21  24
BRANCH  23  31
HETATM   31  O1  UNL     1      22.748   7.326  51.216  1.00  0.00    -0.358 OA
HETATM   32  H25 UNL     1      22.260   6.762  51.897  1.00  0.00     0.217 HD
ENDBRANCH  23  31
ENDBRANCH   1  18
TORSDOF 5
ENDMDL
MODEL 7
REMARK VINA RESULT:      -8.4      3.290      7.264
REMARK  5 active torsions:
REMARK  status: ('A' for Active; 'I' for Inactive)
REMARK    1  A    between atoms: C7_7  and  C8_8 
REMARK    2  A    between atoms: C10_10  and  N1_11 
REMARK    3  A    between atoms: N1_11  and  C11_12 
REMARK    4  A    between atoms: C14_15  and  N2_16 
REMARK    5  A    between atoms: C21_24  and  O1_25 
ROOT
HETATM    1  N1  UNL     1      24.676   4.703  49.279  1.00  0.00    -0.371 N 
HETATM    2  H10 UNL     1      24.237   4.110  48.512  1.00  0.00     0.161 HD
ENDROOT
BRANCH   1   3
HETATM    3  C10 UNL     1      24.024   4.727  50.592  1.00  0.00     0.198 C 
HETATM    4  C9  UNL     1      24.527   3.581  51.389  1.00  0.00     0.017 C 
HETATM    5  C8  UNL     1      24.223   2.321  51.312  1.00  0.00    -0.031 C 
HETATM    6  C23 UNL     1      23.197   2.128  50.250  1.00  0.00     0.161 C 
HETATM    7  N4  UNL     1      22.336   3.239  50.011  1.00  0.00    -0.355 N 
HETATM    8  C22 UNL     1      22.539   4.594  50.445  1.00  0.00     0.244 C 
HETATM    9  H26 UNL     1      21.480   2.959  49.452  1.00  0.00     0.162 HD
HETATM   10  O2  UNL     1      21.419   5.204  50.553  1.00  0.00    -0.271 OA
BRANCH   5  11
HETATM   11  C7  UNL     1      24.683   1.169  52.067  1.00  0.00    -0.023 A 
HETATM   12  C2  UNL     1      24.105   0.423  53.032  1.00  0.00    -0.051 A 
HETATM   13  C1  UNL     1      22.704   0.659  53.363  1.00  0.00     0.049 C 
HETATM   14  C3  UNL     1      24.758  -0.589  53.702  1.00  0.00     0.007 A 
HETATM   15  C4  UNL     1      26.062  -0.906  53.418  1.00  0.00     0.001 A 
HETATM   16  C5  UNL     1      26.694  -0.180  52.443  1.00  0.00     0.001 A 
HETATM   17  C6  UNL     1      26.016   0.807  51.810  1.00  0.00     0.012 A 
ENDBRANCH   5  11
ENDBRANCH   1   3
BRANCH   1  18
HETATM   18  C11 UNL     1      25.845   5.413  48.960  1.00  0.00     0.062 A 
HETATM   19  C12 UNL     1      25.883   6.762  48.701  1.00  0.00     0.034 A 
HETATM   20  C13 UNL     1      27.022   7.469  48.382  1.00  0.00     0.031 A 
HETATM   21  C14 UNL     1      28.233   6.821  48.306  1.00  0.00     0.033 A 
HETATM   22  C20 UNL     1      28.229   5.476  48.558  1.00  0.00     0.068 A 
HETATM   23  C21 UNL     1      27.066   4.779  48.879  1.00  0.00     0.094 A 
BRANCH  21  24
HETATM   24  N2  UNL     1      29.455   7.474  47.983  1.00  0.00    -0.377 N 
HETATM   25  C15 UNL     1      30.344   7.222  46.867  1.00  0.00     0.153 C 
HETATM   26  C16 UNL     1      31.713   6.829  47.382  1.00  0.00     0.291 C 
HETATM   27  N3  UNL     1      32.298   7.944  48.119  1.00  0.00     0.087 N 
HETATM   28  C17 UNL     1      33.605   7.477  48.587  1.00  0.00     0.310 C 
HETATM   29  C18 UNL     1      31.448   8.234  49.232  1.00  0.00     0.291 C 
HETATM   30  C19 UNL     1      30.050   8.535  48.727  1.00  0.00     0.153 C 
ENDBRANCH  21  24
BRANCH  23  31
HETATM   31  O1  UNL     1      27.088   3.394  49.135  1.00  0.00    -0.358 OA
HETATM   32  H25 UNL     1      27.935   2.971  49.487  1.00  0.00     0.217 HD
ENDBRANCH  23  31
ENDBRANCH   1  18
TORSDOF 5
ENDMDL
MODEL 8
REMARK VINA RESULT:      -8.4      3.018      7.981
REMARK  5 active torsions:
REMARK  status: ('A' for Active; 'I' for Inactive)
REMARK    1  A    between atoms: C7_7  and  C8_8 
REMARK    2  A    between atoms: C10_10  and  N1_11 
REMARK    3  A    between atoms: N1_11  and  C11_12 
REMARK    4  A    between atoms: C14_15  and  N2_16 
REMARK    5  A    between atoms: C21_24  and  O1_25 
ROOT
HETATM    1  N1  UNL     1      24.579   4.510  51.105  1.00  0.00    -0.371 N 
HETATM    2  H10 UNL     1      25.170   3.768  51.589  1.00  0.00     0.161 HD
ENDROOT
BRANCH   1   3
HETATM    3  C10 UNL     1      23.122   4.434  51.248  1.00  0.00     0.198 C 
HETATM    4  C9  UNL     1      22.799   3.366  52.226  1.00  0.00     0.017 C 
HETATM    5  C8  UNL     1      22.807   2.076  52.076  1.00  0.00    -0.031 C 
HETATM    6  C23 UNL     1      23.188   1.746  50.674  1.00  0.00     0.161 C 
HETATM    7  N4  UNL     1      22.852   2.726  49.695  1.00  0.00    -0.355 N 
HETATM    8  C22 UNL     1      22.483   4.093  49.936  1.00  0.00     0.244 C 
HETATM    9  H26 UNL     1      22.902   2.332  48.712  1.00  0.00     0.162 HD
HETATM   10  O2  UNL     1      21.757   4.539  48.980  1.00  0.00    -0.271 OA
BRANCH   5  11
HETATM   11  C7  UNL     1      22.498   0.995  52.996  1.00  0.00    -0.023 A 
HETATM   12  C2  UNL     1      23.260   0.039  53.567  1.00  0.00    -0.051 A 
HETATM   13  C1  UNL     1      24.707   0.090  53.391  1.00  0.00     0.049 C 
HETATM   14  C3  UNL     1      22.747  -0.971  54.351  1.00  0.00     0.007 A 
HETATM   15  C4  UNL     1      21.402  -1.065  54.606  1.00  0.00     0.001 A 
HETATM   16  C5  UNL     1      20.585  -0.116  54.050  1.00  0.00     0.001 A 
HETATM   17  C6  UNL     1      21.129   0.860  53.285  1.00  0.00     0.012 A 
ENDBRANCH   5  11
ENDBRANCH   1   3
BRANCH   1  18
HETATM   18  C11 UNL     1      25.255   5.498  50.371  1.00  0.00     0.062 A 
HETATM   19  C12 UNL     1      25.989   5.250  49.235  1.00  0.00     0.034 A 
HETATM   20  C13 UNL     1      26.661   6.210  48.509  1.00  0.00     0.031 A 
HETATM   21  C14 UNL     1      26.623   7.524  48.909  1.00  0.00     0.033 A 
HETATM   22  C20 UNL     1      25.901   7.805  50.037  1.00  0.00     0.068 A 
HETATM   23  C21 UNL     1      25.229   6.820  50.758  1.00  0.00     0.094 A 
BRANCH  21  24
HETATM   24  N2  UNL     1      27.288   8.576  48.218  1.00  0.00    -0.377 N 
HETATM   25  C15 UNL     1      28.230   8.480  47.122  1.00  0.00     0.153 C 
HETATM   26  C16 UNL     1      29.550   9.102  47.529  1.00  0.00     0.291 C 
HETATM   27  N3  UNL     1      29.366  10.528  47.777  1.00  0.00     0.087 N 
HETATM   28  C17 UNL     1      30.679  11.043  48.171  1.00  0.00     0.310 C 
HETATM   29  C18 UNL     1      28.433  10.673  48.852  1.00  0.00     0.291 C 
HETATM   30  C19 UNL     1      27.140   9.969  48.489  1.00  0.00     0.153 C 
ENDBRANCH  21  24
BRANCH  23  31
HETATM   31  O1  UNL     1      24.491   7.134  51.917  1.00  0.00    -0.358 OA
HETATM   32  H25 UNL     1      24.222   6.391  52.546  1.00  0.00     0.217 HD
ENDBRANCH  23  31
ENDBRANCH   1  18
TORSDOF 5
ENDMDL
MODEL 9
REMARK VINA RESULT:      -8.0      2.971      7.735
REMARK  5 active torsions:
REMARK  status: ('A' for Active; 'I' for Inactive)
REMARK    1  A    between atoms: C7_7  and  C8_8 
REMARK    2  A    between atoms: C10_10  and  N1_11 
REMARK    3  A    between atoms: N1_11  and  C11_12 
REMARK    4  A    between atoms: C14_15  and  N2_16 
REMARK    5  A    between atoms: C21_24  and  O1_25 
ROOT
HETATM    1  N1  UNL     1      23.808   3.530  49.618  1.00  0.00    -0.371 N 
HETATM    2  H10 UNL     1      23.837   2.581  49.136  1.00  0.00     0.161 HD
ENDROOT
BRANCH   1   3
HETATM    3  C10 UNL     1      22.722   3.789  50.568  1.00  0.00     0.198 C 
HETATM    4  C9  UNL     1      22.889   2.885  51.733  1.00  0.00     0.017 C 
HETATM    5  C8  UNL     1      22.623   1.619  51.844  1.00  0.00    -0.031 C 
HETATM    6  C23 UNL     1      22.053   1.123  50.560  1.00  0.00     0.161 C 
HETATM    7  N4  UNL     1      21.348   2.088  49.781  1.00  0.00    -0.355 N 
HETATM    8  C22 UNL     1      21.392   3.516  49.935  1.00  0.00     0.244 C 
HETATM    9  H26 UNL     1      20.753   1.629  49.034  1.00  0.00     0.162 HD
HETATM   10  O2  UNL     1      20.316   4.048  49.492  1.00  0.00    -0.271 OA
BRANCH   5  11
HETATM   11  C7  UNL     1      22.764   0.696  52.957  1.00  0.00    -0.023 A 
HETATM   12  C2  UNL     1      23.813  -0.011  53.425  1.00  0.00    -0.051 A 
HETATM   13  C1  UNL     1      25.135   0.222  52.853  1.00  0.00     0.049 C 
HETATM   14  C3  UNL     1      23.714  -0.921  54.455  1.00  0.00     0.007 A 
HETATM   15  C4  UNL     1      22.518  -1.165  55.080  1.00  0.00     0.001 A 
HETATM   16  C5  UNL     1      21.422  -0.470  54.642  1.00  0.00     0.001 A 
HETATM   17  C6  UNL     1      21.561   0.415  53.627  1.00  0.00     0.012 A 
ENDBRANCH   5  11
ENDBRANCH   1   3
BRANCH   1  18
HETATM   18  C11 UNL     1      24.819   4.450  49.297  1.00  0.00     0.062 A 
HETATM   19  C12 UNL     1      24.586   5.736  48.869  1.00  0.00     0.034 A 
HETATM   20  C13 UNL     1      25.568   6.646  48.546  1.00  0.00     0.031 A 
HETATM   21  C14 UNL     1      26.892   6.290  48.642  1.00  0.00     0.033 A 
HETATM   22  C20 UNL     1      27.159   5.016  49.065  1.00  0.00     0.068 A 
HETATM   23  C21 UNL     1      26.151   4.109  49.387  1.00  0.00     0.094 A 
BRANCH  21  24
HETATM   24  N2  UNL     1      27.968   7.167  48.328  1.00  0.00    -0.377 N 
HETATM   25  C15 UNL     1      28.207   8.510  48.815  1.00  0.00     0.153 C 
HETATM   26  C16 UNL     1      28.240   9.478  47.650  1.00  0.00     0.291 C 
HETATM   27  N3  UNL     1      29.368   9.159  46.780  1.00  0.00     0.087 N 
HETATM   28  C17 UNL     1      29.319  10.128  45.683  1.00  0.00     0.310 C 
HETATM   29  C18 UNL     1      29.178   7.832  46.279  1.00  0.00     0.291 C 
HETATM   30  C19 UNL     1      29.047   6.872  47.444  1.00  0.00     0.153 C 
ENDBRANCH  21  24
BRANCH  23  31
HETATM   31  O1  UNL     1      26.451   2.802  49.821  1.00  0.00    -0.358 OA
HETATM   32  H25 UNL     1      26.033   2.017  49.342  1.00  0.00     0.217 HD
ENDBRANCH  23  31
ENDBRANCH   1  18
TORSDOF 5
ENDMDL
