MODEL 1
REMARK VINA RESULT:      -7.4      0.000      0.000
REMARK  7 active torsions:
REMARK  status: ('A' for Active; 'I' for Inactive)
REMARK    1  A    between atoms: C2_2  and  C3_3 
REMARK    2  A    between atoms: C4_4  and  C5_5 
REMARK    3  A    between atoms: C4_4  and  C7_8 
REMARK    4  A    between atoms: C7_8  and  C8_9 
REMARK       I    between atoms: C8_9  and  N1_11 
REMARK    5  A    between atoms: N1_11  and  S1_12 
REMARK    6  A    between atoms: S1_12  and  C9_15 
REMARK    7  A    between atoms: C10_16  and  C11_17 
ROOT
HETATM    1  C8  UNL     1      25.715   3.069  50.918  1.00  0.00     0.231 C 
HETATM    2  O1  UNL     1      26.616   2.338  50.442  1.00  0.00    -0.273 OA
HETATM    3  N1  UNL     1      25.942   2.903  52.337  1.00  0.00    -0.251 N 
HETATM    4  H9  UNL     1      25.423   3.336  53.169  1.00  0.00     0.181 HD
ENDROOT
BRANCH   3   5
HETATM    5  S1  UNL     1      27.181   1.904  53.005  1.00  0.00     0.255 S 
HETATM    6  O2  UNL     1      27.110   1.991  54.500  1.00  0.00    -0.201 OA
HETATM    7  O3  UNL     1      28.540   2.479  52.608  1.00  0.00    -0.201 OA
BRANCH   5   8
HETATM    8  C9  UNL     1      27.153   0.274  52.460  1.00  0.00     0.131 C 
HETATM    9  C10 UNL     1      26.219  -0.629  52.683  1.00  0.00     0.015 C 
BRANCH   9  10
HETATM   10  C11 UNL     1      24.939  -0.804  53.353  1.00  0.00     0.024 C 
HETATM   11  C12 UNL     1      23.682  -0.424  53.475  1.00  0.00     0.030 A 
HETATM   12 CL1  UNL     1      22.617  -1.171  54.616  1.00  0.00    -0.108 Cl
HETATM   13  C13 UNL     1      23.150   0.655  52.633  1.00  0.00     0.031 A 
HETATM   14 BR2  UNL     1      20.638   0.336  53.924  1.00  0.00    -0.039 Br
HETATM   15  C14 UNL     1      21.916   1.065  52.716  1.00  0.00     0.062 A 
ENDBRANCH   9  10
ENDBRANCH   5   8
ENDBRANCH   3   5
BRANCH   1  16
HETATM   16  C7  UNL     1      24.566   3.994  50.780  1.00  0.00     0.109 C 
BRANCH  16  17
HETATM   17  C4  UNL     1      24.109   4.217  49.397  1.00  0.00    -0.031 C 
HETATM   18  C3  UNL     1      23.491   3.049  49.338  1.00  0.00     0.034 C 
BRANCH  18  19
HETATM   19  C2  UNL     1      22.748   2.495  48.197  1.00  0.00    -0.005 C 
HETATM   20  C1  UNL     1      21.859   1.580  48.536  1.00  0.00     0.006 C 
ENDBRANCH  18  19
BRANCH  17  21
HETATM   21  C5  UNL     1      24.629   5.553  49.000  1.00  0.00     0.012 C 
HETATM   22  C6  UNL     1      25.828   5.994  48.706  1.00  0.00     0.185 C 
HETATM   23 BR1  UNL     1      27.605   5.260  48.601  1.00  0.00    -0.198 Br
ENDBRANCH  17  21
ENDBRANCH  16  17
ENDBRANCH   1  16
TORSDOF 7
ENDMDL
MODEL 2
REMARK VINA RESULT:      -7.0      2.009      3.031
REMARK  7 active torsions:
REMARK  status: ('A' for Active; 'I' for Inactive)
REMARK    1  A    between atoms: C2_2  and  C3_3 
REMARK    2  A    between atoms: C4_4  and  C5_5 
REMARK    3  A    between atoms: C4_4  and  C7_8 
REMARK    4  A    between atoms: C7_8  and  C8_9 
REMARK       I    between atoms: C8_9  and  N1_11 
REMARK    5  A    between atoms: N1_11  and  S1_12 
REMARK    6  A    between atoms: S1_12  and  C9_15 
REMARK    7  A    between atoms: C10_16  and  C11_17 
ROOT
HETATM    1  C8  UNL     1      25.857   2.663  51.400  1.00  0.00     0.231 C 
HETATM    2  O1  UNL     1      25.403   2.825  52.558  1.00  0.00    -0.273 OA
HETATM    3  N1  UNL     1      27.052   1.894  51.675  1.00  0.00    -0.251 N 
HETATM    4  H9  UNL     1      27.786   1.504  50.998  1.00  0.00     0.181 HD
ENDROOT
BRANCH   3   5
HETATM    5  S1  UNL     1      27.555   1.427  53.258  1.00  0.00     0.255 S 
HETATM    6  O2  UNL     1      27.153   2.502  54.223  1.00  0.00    -0.201 OA
HETATM    7  O3  UNL     1      29.081   1.372  53.292  1.00  0.00    -0.201 OA
BRANCH   5   8
HETATM    8  C9  UNL     1      26.991  -0.119  53.757  1.00  0.00     0.131 C 
HETATM    9  C10 UNL     1      25.773  -0.606  53.632  1.00  0.00     0.015 C 
BRANCH   9  10
HETATM   10  C11 UNL     1      24.452  -0.259  53.127  1.00  0.00     0.024 C 
HETATM   11  C12 UNL     1      23.144  -0.344  53.273  1.00  0.00     0.030 A 
HETATM   12 CL1  UNL     1      22.059   0.408  52.155  1.00  0.00    -0.108 Cl
HETATM   13  C13 UNL     1      22.572  -1.090  54.401  1.00  0.00     0.031 A 
HETATM   14 BR2  UNL     1      19.980  -0.427  53.439  1.00  0.00    -0.039 Br
HETATM   15  C14 UNL     1      21.286  -1.202  54.587  1.00  0.00     0.062 A 
ENDBRANCH   9  10
ENDBRANCH   5   8
ENDBRANCH   3   5
BRANCH   1  16
HETATM   16  C7  UNL     1      25.804   2.847  49.931  1.00  0.00     0.109 C 
BRANCH  16  17
HETATM   17  C4  UNL     1      25.569   4.232  49.486  1.00  0.00    -0.031 C 
HETATM   18  C3  UNL     1      26.829   4.403  49.121  1.00  0.00     0.034 C 
BRANCH  18  19
HETATM   19  C2  UNL     1      27.429   5.616  48.546  1.00  0.00    -0.005 C 
HETATM   20  C1  UNL     1      28.720   5.501  48.296  1.00  0.00     0.006 C 
ENDBRANCH  18  19
BRANCH  17  21
HETATM   21  C5  UNL     1      24.129   4.509  49.736  1.00  0.00     0.012 C 
HETATM   22  C6  UNL     1      23.023   3.961  49.294  1.00  0.00     0.185 C 
HETATM   23 BR1  UNL     1      22.550   2.523  48.102  1.00  0.00    -0.198 Br
ENDBRANCH  17  21
ENDBRANCH  16  17
ENDBRANCH   1  16
TORSDOF 7
ENDMDL
MODEL 3
REMARK VINA RESULT:      -6.8      2.279      2.359
REMARK  7 active torsions:
REMARK  status: ('A' for Active; 'I' for Inactive)
REMARK    1  A    between atoms: C2_2  and  C3_3 
REMARK    2  A    between atoms: C4_4  and  C5_5 
REMARK    3  A    between atoms: C4_4  and  C7_8 
REMARK    4  A    between atoms: C7_8  and  C8_9 
REMARK       I    between atoms: C8_9  and  N1_11 
REMARK    5  A    between atoms: N1_11  and  S1_12 
REMARK    6  A    between atoms: S1_12  and  C9_15 
REMARK    7  A    between atoms: C10_16  and  C11_17 
ROOT
HETATM    1  C8  UNL     1      24.834   3.010  52.305  1.00  0.00     0.231 C 
HETATM    2  O1  UNL     1      25.433   2.475  51.342  1.00  0.00    -0.273 OA
HETATM    3  N1  UNL     1      25.733   2.704  53.396  1.00  0.00    -0.251 N 
HETATM    4  H9  UNL     1      25.659   2.955  54.436  1.00  0.00     0.181 HD
ENDROOT
BRANCH   3   5
HETATM    5  S1  UNL     1      27.200   1.812  53.216  1.00  0.00     0.255 S 
HETATM    6  O2  UNL     1      27.902   1.777  54.541  1.00  0.00    -0.201 OA
HETATM    7  O3  UNL     1      28.121   2.572  52.264  1.00  0.00    -0.201 OA
BRANCH   5   8
HETATM    8  C9  UNL     1      26.999   0.236  52.561  1.00  0.00     0.131 C 
HETATM    9  C10 UNL     1      26.017  -0.611  52.796  1.00  0.00     0.015 C 
BRANCH   9  10
HETATM   10  C11 UNL     1      24.783  -0.743  53.558  1.00  0.00     0.024 C 
HETATM   11  C12 UNL     1      23.481  -0.543  53.616  1.00  0.00     0.030 A 
HETATM   12 CL1  UNL     1      22.555  -1.013  55.000  1.00  0.00    -0.108 Cl
HETATM   13  C13 UNL     1      22.779   0.092  52.494  1.00  0.00     0.031 A 
HETATM   14 BR2  UNL     1      20.354  -0.154  53.958  1.00  0.00    -0.039 Br
HETATM   15  C14 UNL     1      21.494   0.311  52.506  1.00  0.00     0.062 A 
ENDBRANCH   9  10
ENDBRANCH   5   8
ENDBRANCH   3   5
BRANCH   1  16
HETATM   16  C7  UNL     1      23.709   3.776  52.889  1.00  0.00     0.109 C 
BRANCH  16  17
HETATM   17  C4  UNL     1      22.975   4.629  51.936  1.00  0.00    -0.031 C 
HETATM   18  C3  UNL     1      21.856   3.939  52.071  1.00  0.00     0.034 C 
BRANCH  18  19
HETATM   19  C2  UNL     1      20.575   4.182  51.390  1.00  0.00    -0.005 C 
HETATM   20  C1  UNL     1      19.601   3.387  51.792  1.00  0.00     0.006 C 
ENDBRANCH  18  19
BRANCH  17  21
HETATM   21  C5  UNL     1      23.944   5.656  51.469  1.00  0.00     0.012 C 
HETATM   22  C6  UNL     1      23.804   6.795  50.834  1.00  0.00     0.185 C 
HETATM   23 BR1  UNL     1      22.345   7.833  50.124  1.00  0.00    -0.198 Br
ENDBRANCH  17  21
ENDBRANCH  16  17
ENDBRANCH   1  16
TORSDOF 7
ENDMDL
MODEL 4
REMARK VINA RESULT:      -6.8      2.201      2.796
REMARK  7 active torsions:
REMARK  status: ('A' for Active; 'I' for Inactive)
REMARK    1  A    between atoms: C2_2  and  C3_3 
REMARK    2  A    between atoms: C4_4  and  C5_5 
REMARK    3  A    between atoms: C4_4  and  C7_8 
REMARK    4  A    between atoms: C7_8  and  C8_9 
REMARK       I    between atoms: C8_9  and  N1_11 
REMARK    5  A    between atoms: N1_11  and  S1_12 
REMARK    6  A    between atoms: S1_12  and  C9_15 
REMARK    7  A    between atoms: C10_16  and  C11_17 
ROOT
HETATM    1  C8  UNL     1      26.640   1.749  51.885  1.00  0.00     0.231 C 
HETATM    2  O1  UNL     1      26.766   2.010  53.105  1.00  0.00    -0.273 OA
HETATM    3  N1  UNL     1      26.714   0.304  51.902  1.00  0.00    -0.251 N 
HETATM    4  H9  UNL     1      26.652  -0.395  51.091  1.00  0.00     0.181 HD
ENDROOT
BRANCH   3   5
HETATM    5  S1  UNL     1      26.931  -0.634  53.334  1.00  0.00     0.255 S 
HETATM    6  O2  UNL     1      28.223  -0.228  53.979  1.00  0.00    -0.201 OA
HETATM    7  O3  UNL     1      27.094  -2.101  52.939  1.00  0.00    -0.201 OA
BRANCH   5   8
HETATM    8  C9  UNL     1      25.617  -0.561  54.439  1.00  0.00     0.131 C 
HETATM    9  C10 UNL     1      24.350  -0.323  54.163  1.00  0.00     0.015 C 
BRANCH   9  10
HETATM   10  C11 UNL     1      23.459  -0.042  53.046  1.00  0.00     0.024 C 
HETATM   11  C12 UNL     1      22.221   0.089  52.612  1.00  0.00     0.030 A 
HETATM   12 CL1  UNL     1      21.878   0.481  50.962  1.00  0.00    -0.108 Cl
HETATM   13  C13 UNL     1      21.091  -0.099  53.531  1.00  0.00     0.031 A 
HETATM   14 BR2  UNL     1      19.328   0.447  51.369  1.00  0.00    -0.039 Br
HETATM   15  C14 UNL     1      19.850   0.019  53.149  1.00  0.00     0.062 A 
ENDBRANCH   9  10
ENDBRANCH   5   8
ENDBRANCH   3   5
BRANCH   1  16
HETATM   16  C7  UNL     1      26.458   2.145  50.470  1.00  0.00     0.109 C 
BRANCH  16  17
HETATM   17  C4  UNL     1      25.755   3.425  50.267  1.00  0.00    -0.031 C 
HETATM   18  C3  UNL     1      24.655   2.996  50.862  1.00  0.00     0.034 C 
BRANCH  18  19
HETATM   19  C2  UNL     1      23.406   3.744  51.065  1.00  0.00    -0.005 C 
HETATM   20  C1  UNL     1      23.189   4.083  52.322  1.00  0.00     0.006 C 
ENDBRANCH  18  19
BRANCH  17  21
HETATM   21  C5  UNL     1      26.710   4.313  49.552  1.00  0.00     0.012 C 
HETATM   22  C6  UNL     1      26.571   5.457  48.927  1.00  0.00     0.185 C 
HETATM   23 BR1  UNL     1      25.130   6.675  48.538  1.00  0.00    -0.198 Br
ENDBRANCH  17  21
ENDBRANCH  16  17
ENDBRANCH   1  16
TORSDOF 7
ENDMDL
MODEL 5
REMARK VINA RESULT:      -6.7      2.075      2.663
REMARK  7 active torsions:
REMARK  status: ('A' for Active; 'I' for Inactive)
REMARK    1  A    between atoms: C2_2  and  C3_3 
REMARK    2  A    between atoms: C4_4  and  C5_5 
REMARK    3  A    between atoms: C4_4  and  C7_8 
REMARK    4  A    between atoms: C7_8  and  C8_9 
REMARK       I    between atoms: C8_9  and  N1_11 
REMARK    5  A    between atoms: N1_11  and  S1_12 
REMARK    6  A    between atoms: S1_12  and  C9_15 
REMARK    7  A    between atoms: C10_16  and  C11_17 
ROOT
HETATM    1  C8  UNL     1      24.685   3.415  52.503  1.00  0.00     0.231 C 
HETATM    2  O1  UNL     1      24.650   2.802  53.597  1.00  0.00    -0.273 OA
HETATM    3  N1  UNL     1      25.986   3.022  52.006  1.00  0.00    -0.251 N 
HETATM    4  H9  UNL     1      26.479   3.287  51.092  1.00  0.00     0.181 HD
ENDROOT
BRANCH   3   5
HETATM    5  S1  UNL     1      27.067   1.978  52.855  1.00  0.00     0.255 S 
HETATM    6  O2  UNL     1      26.839   2.149  54.327  1.00  0.00    -0.201 OA
HETATM    7  O3  UNL     1      28.500   2.436  52.589  1.00  0.00    -0.201 OA
BRANCH   5   8
HETATM    8  C9  UNL     1      26.978   0.327  52.384  1.00  0.00     0.131 C 
HETATM    9  C10 UNL     1      26.048  -0.550  52.709  1.00  0.00     0.015 C 
BRANCH   9  10
HETATM   10  C11 UNL     1      24.814  -0.674  53.471  1.00  0.00     0.024 C 
HETATM   11  C12 UNL     1      23.511  -0.480  53.524  1.00  0.00     0.030 A 
HETATM   12 CL1  UNL     1      22.585  -0.927  54.915  1.00  0.00    -0.108 Cl
HETATM   13  C13 UNL     1      22.807   0.127  52.387  1.00  0.00     0.031 A 
HETATM   14 BR2  UNL     1      20.381  -0.103  53.852  1.00  0.00    -0.039 Br
HETATM   15  C14 UNL     1      21.520   0.339  52.392  1.00  0.00     0.062 A 
ENDBRANCH   9  10
ENDBRANCH   5   8
ENDBRANCH   3   5
BRANCH   1  16
HETATM   16  C7  UNL     1      24.096   4.310  51.480  1.00  0.00     0.109 C 
BRANCH  16  17
HETATM   17  C4  UNL     1      22.865   3.806  50.847  1.00  0.00    -0.031 C 
HETATM   18  C3  UNL     1      22.127   4.063  51.913  1.00  0.00     0.034 C 
BRANCH  18  19
HETATM   19  C2  UNL     1      20.687   3.814  52.077  1.00  0.00    -0.005 C 
HETATM   20  C1  UNL     1      19.971   4.118  51.011  1.00  0.00     0.006 C 
ENDBRANCH  18  19
BRANCH  17  21
HETATM   21  C5  UNL     1      23.254   3.357  49.483  1.00  0.00     0.012 C 
HETATM   22  C6  UNL     1      22.779   2.442  48.674  1.00  0.00     0.185 C 
HETATM   23 BR1  UNL     1      21.353   1.148  48.704  1.00  0.00    -0.198 Br
ENDBRANCH  17  21
ENDBRANCH  16  17
ENDBRANCH   1  16
TORSDOF 7
ENDMDL
MODEL 6
REMARK VINA RESULT:      -6.7      2.885      5.131
REMARK  7 active torsions:
REMARK  status: ('A' for Active; 'I' for Inactive)
REMARK    1  A    between atoms: C2_2  and  C3_3 
REMARK    2  A    between atoms: C4_4  and  C5_5 
REMARK    3  A    between atoms: C4_4  and  C7_8 
REMARK    4  A    between atoms: C7_8  and  C8_9 
REMARK       I    between atoms: C8_9  and  N1_11 
REMARK    5  A    between atoms: N1_11  and  S1_12 
REMARK    6  A    between atoms: S1_12  and  C9_15 
REMARK    7  A    between atoms: C10_16  and  C11_17 
ROOT
HETATM    1  C8  UNL     1      25.476   2.900  51.686  1.00  0.00     0.231 C 
HETATM    2  O1  UNL     1      26.024   3.132  50.582  1.00  0.00    -0.273 OA
HETATM    3  N1  UNL     1      24.475   3.943  51.724  1.00  0.00    -0.251 N 
HETATM    4  H9  UNL     1      23.742   4.162  52.476  1.00  0.00     0.181 HD
ENDROOT
BRANCH   3   5
HETATM    5  S1  UNL     1      24.255   5.115  50.476  1.00  0.00     0.255 S 
HETATM    6  O2  UNL     1      25.493   5.956  50.388  1.00  0.00    -0.201 OA
HETATM    7  O3  UNL     1      23.125   6.059  50.884  1.00  0.00    -0.201 OA
BRANCH   5   8
HETATM    8  C9  UNL     1      23.823   4.456  48.948  1.00  0.00     0.131 C 
HETATM    9  C10 UNL     1      23.133   3.357  48.716  1.00  0.00     0.015 C 
BRANCH   9  10
HETATM   10  C11 UNL     1      22.459   2.267  49.405  1.00  0.00     0.024 C 
HETATM   11  C12 UNL     1      21.674   1.888  50.395  1.00  0.00     0.030 A 
HETATM   12 CL1  UNL     1      21.247   0.228  50.627  1.00  0.00    -0.108 Cl
HETATM   13  C13 UNL     1      21.139   2.880  51.336  1.00  0.00     0.031 A 
HETATM   14 BR2  UNL     1      19.809   0.771  52.702  1.00  0.00    -0.039 Br
HETATM   15  C14 UNL     1      20.360   2.555  52.330  1.00  0.00     0.062 A 
ENDBRANCH   9  10
ENDBRANCH   5   8
ENDBRANCH   3   5
BRANCH   1  16
HETATM   16  C7  UNL     1      25.328   2.127  52.940  1.00  0.00     0.109 C 
BRANCH  16  17
HETATM   17  C4  UNL     1      25.269   0.664  52.767  1.00  0.00    -0.031 C 
HETATM   18  C3  UNL     1      24.011   0.596  53.169  1.00  0.00     0.034 C 
BRANCH  18  19
HETATM   19  C2  UNL     1      23.182  -0.612  53.291  1.00  0.00    -0.005 C 
HETATM   20  C1  UNL     1      22.936  -0.963  54.539  1.00  0.00     0.006 C 
ENDBRANCH  18  19
BRANCH  17  21
HETATM   21  C5  UNL     1      26.612   0.251  52.278  1.00  0.00     0.012 C 
HETATM   22  C6  UNL     1      27.753   0.024  52.883  1.00  0.00     0.185 C 
HETATM   23 BR1  UNL     1      28.415   0.074  54.691  1.00  0.00    -0.198 Br
ENDBRANCH  17  21
ENDBRANCH  16  17
ENDBRANCH   1  16
TORSDOF 7
ENDMDL
MODEL 7
REMARK VINA RESULT:      -6.7      1.605      2.657
REMARK  7 active torsions:
REMARK  status: ('A' for Active; 'I' for Inactive)
REMARK    1  A    between atoms: C2_2  and  C3_3 
REMARK    2  A    between atoms: C4_4  and  C5_5 
REMARK    3  A    between atoms: C4_4  and  C7_8 
REMARK    4  A    between atoms: C7_8  and  C8_9 
REMARK       I    between atoms: C8_9  and  N1_11 
REMARK    5  A    between atoms: N1_11  and  S1_12 
REMARK    6  A    between atoms: S1_12  and  C9_15 
REMARK    7  A    between atoms: C10_16  and  C11_17 
ROOT
HETATM    1  C8  UNL     1      25.883   3.076  50.931  1.00  0.00     0.231 C 
HETATM    2  O1  UNL     1      26.822   2.382  50.472  1.00  0.00    -0.273 OA
HETATM    3  N1  UNL     1      26.041   2.852  52.352  1.00  0.00    -0.251 N 
HETATM    4  H9  UNL     1      25.472   3.240  53.174  1.00  0.00     0.181 HD
ENDROOT
BRANCH   3   5
HETATM    5  S1  UNL     1      27.264   1.848  53.040  1.00  0.00     0.255 S 
HETATM    6  O2  UNL     1      27.180   1.950  54.534  1.00  0.00    -0.201 OA
HETATM    7  O3  UNL     1      28.632   2.405  52.651  1.00  0.00    -0.201 OA
BRANCH   5   8
HETATM    8  C9  UNL     1      27.225   0.213  52.511  1.00  0.00     0.131 C 
HETATM    9  C10 UNL     1      26.275  -0.676  52.724  1.00  0.00     0.015 C 
BRANCH   9  10
HETATM   10  C11 UNL     1      24.980  -0.828  53.371  1.00  0.00     0.024 C 
HETATM   11  C12 UNL     1      23.729  -0.422  53.474  1.00  0.00     0.030 A 
HETATM   12 CL1  UNL     1      22.630  -1.153  54.592  1.00  0.00    -0.108 Cl
HETATM   13  C13 UNL     1      23.235   0.674  52.630  1.00  0.00     0.031 A 
HETATM   14 BR2  UNL     1      20.695   0.400  53.876  1.00  0.00    -0.039 Br
HETATM   15  C14 UNL     1      22.008   1.110  52.695  1.00  0.00     0.062 A 
ENDBRANCH   9  10
ENDBRANCH   5   8
ENDBRANCH   3   5
BRANCH   1  16
HETATM   16  C7  UNL     1      24.725   3.985  50.773  1.00  0.00     0.109 C 
BRANCH  16  17
HETATM   17  C4  UNL     1      24.340   4.267  49.379  1.00  0.00    -0.031 C 
HETATM   18  C3  UNL     1      24.936   5.448  49.380  1.00  0.00     0.034 C 
BRANCH  18  19
HETATM   19  C2  UNL     1      24.995   6.414  48.272  1.00  0.00    -0.005 C 
HETATM   20  C1  UNL     1      24.617   7.632  48.611  1.00  0.00     0.006 C 
ENDBRANCH  18  19
BRANCH  17  21
HETATM   21  C5  UNL     1      23.565   3.086  48.915  1.00  0.00     0.012 C 
HETATM   22  C6  UNL     1      22.310   2.732  49.050  1.00  0.00     0.185 C 
HETATM   23 BR1  UNL     1      20.731   3.454  49.885  1.00  0.00    -0.198 Br
ENDBRANCH  17  21
ENDBRANCH  16  17
ENDBRANCH   1  16
TORSDOF 7
ENDMDL
MODEL 8
REMARK VINA RESULT:      -6.6      4.312      7.052
REMARK  7 active torsions:
REMARK  status: ('A' for Active; 'I' for Inactive)
REMARK    1  A    between atoms: C2_2  and  C3_3 
REMARK    2  A    between atoms: C4_4  and  C5_5 
REMARK    3  A    between atoms: C4_4  and  C7_8 
REMARK    4  A    between atoms: C7_8  and  C8_9 
REMARK       I    between atoms: C8_9  and  N1_11 
REMARK    5  A    between atoms: N1_11  and  S1_12 
REMARK    6  A    between atoms: S1_12  and  C9_15 
REMARK    7  A    between atoms: C10_16  and  C11_17 
ROOT
HETATM    1  C8  UNL     1      20.156   2.099  51.938  1.00  0.00     0.231 C 
HETATM    2  O1  UNL     1      20.020   3.120  52.653  1.00  0.00    -0.273 OA
HETATM    3  N1  UNL     1      21.069   2.588  50.927  1.00  0.00    -0.251 N 
HETATM    4  H9  UNL     1      21.494   2.079  50.084  1.00  0.00     0.181 HD
ENDROOT
BRANCH   3   5
HETATM    5  S1  UNL     1      21.691   4.197  50.886  1.00  0.00     0.255 S 
HETATM    6  O2  UNL     1      20.550   5.143  50.656  1.00  0.00    -0.201 OA
HETATM    7  O3  UNL     1      22.612   4.336  49.675  1.00  0.00    -0.201 OA
BRANCH   5   8
HETATM    8  C9  UNL     1      22.615   4.639  52.266  1.00  0.00     0.131 C 
HETATM    9  C10 UNL     1      23.764   4.125  52.659  1.00  0.00     0.015 C 
BRANCH   9  10
HETATM   10  C11 UNL     1      24.748   3.117  52.291  1.00  0.00     0.024 C 
HETATM   11  C12 UNL     1      25.190   1.883  52.435  1.00  0.00     0.030 A 
HETATM   12 CL1  UNL     1      26.579   1.313  51.577  1.00  0.00    -0.108 Cl
HETATM   13  C13 UNL     1      24.503   0.953  53.341  1.00  0.00     0.031 A 
HETATM   14 BR2  UNL     1      26.410  -1.035  52.640  1.00  0.00    -0.039 Br
HETATM   15  C14 UNL     1      24.902  -0.275  53.518  1.00  0.00     0.062 A 
ENDBRANCH   9  10
ENDBRANCH   5   8
ENDBRANCH   3   5
BRANCH   1  16
HETATM   16  C7  UNL     1      19.873   0.685  51.601  1.00  0.00     0.109 C 
BRANCH  16  17
HETATM   17  C4  UNL     1      19.461  -0.155  52.740  1.00  0.00    -0.031 C 
HETATM   18  C3  UNL     1      20.665  -0.130  53.285  1.00  0.00     0.034 C 
BRANCH  18  19
HETATM   19  C2  UNL     1      21.090  -0.791  54.528  1.00  0.00    -0.005 C 
HETATM   20  C1  UNL     1      21.704  -1.943  54.334  1.00  0.00     0.006 C 
ENDBRANCH  18  19
BRANCH  17  21
HETATM   21  C5  UNL     1      18.022  -0.465  52.525  1.00  0.00     0.012 C 
HETATM   22  C6  UNL     1      17.280  -1.508  52.810  1.00  0.00     0.185 C 
HETATM   23 BR1  UNL     1      17.538  -3.228  53.639  1.00  0.00    -0.198 Br
ENDBRANCH  17  21
ENDBRANCH  16  17
ENDBRANCH   1  16
TORSDOF 7
ENDMDL
MODEL 9
REMARK VINA RESULT:      -6.6      2.694      3.049
REMARK  7 active torsions:
REMARK  status: ('A' for Active; 'I' for Inactive)
REMARK    1  A    between atoms: C2_2  and  C3_3 
REMARK    2  A    between atoms: C4_4  and  C5_5 
REMARK    3  A    between atoms: C4_4  and  C7_8 
REMARK    4  A    between atoms: C7_8  and  C8_9 
REMARK       I    between atoms: C8_9  and  N1_11 
REMARK    5  A    between atoms: N1_11  and  S1_12 
REMARK    6  A    between atoms: S1_12  and  C9_15 
REMARK    7  A    between atoms: C10_16  and  C11_17 
ROOT
HETATM    1  C8  UNL     1      25.129   2.241  52.401  1.00  0.00     0.231 C 
HETATM    2  O1  UNL     1      24.921   2.440  53.622  1.00  0.00    -0.273 OA
HETATM    3  N1  UNL     1      25.681   0.904  52.428  1.00  0.00    -0.251 N 
HETATM    4  H9  UNL     1      26.016   0.285  51.619  1.00  0.00     0.181 HD
ENDROOT
BRANCH   3   5
HETATM    5  S1  UNL     1      25.921  -0.012  53.871  1.00  0.00     0.255 S 
HETATM    6  O2  UNL     1      26.644   0.846  54.866  1.00  0.00    -0.201 OA
HETATM    7  O3  UNL     1      26.853  -1.181  53.559  1.00  0.00    -0.201 OA
BRANCH   5   8
HETATM    8  C9  UNL     1      24.485  -0.684  54.534  1.00  0.00     0.131 C 
HETATM    9  C10 UNL     1      23.286  -0.711  53.987  1.00  0.00     0.015 C 
BRANCH   9  10
HETATM   10  C11 UNL     1      22.571  -0.304  52.787  1.00  0.00     0.024 C 
HETATM   11  C12 UNL     1      21.760   0.562  52.210  1.00  0.00     0.030 A 
HETATM   12 CL1  UNL     1      21.284   0.393  50.556  1.00  0.00    -0.108 Cl
HETATM   13  C13 UNL     1      21.237   1.704  52.970  1.00  0.00     0.031 A 
HETATM   14 BR2  UNL     1      19.829   2.525  50.641  1.00  0.00    -0.039 Br
HETATM   15  C14 UNL     1      20.433   2.586  52.445  1.00  0.00     0.062 A 
ENDBRANCH   9  10
ENDBRANCH   5   8
ENDBRANCH   3   5
BRANCH   1  16
HETATM   16  C7  UNL     1      25.100   2.657  50.980  1.00  0.00     0.109 C 
BRANCH  16  17
HETATM   17  C4  UNL     1      23.928   3.462  50.590  1.00  0.00    -0.031 C 
HETATM   18  C3  UNL     1      23.847   2.894  49.399  1.00  0.00     0.034 C 
BRANCH  18  19
HETATM   19  C2  UNL     1      22.867   3.186  48.342  1.00  0.00    -0.005 C 
HETATM   20  C1  UNL     1      22.439   2.113  47.704  1.00  0.00     0.006 C 
ENDBRANCH  18  19
BRANCH  17  21
HETATM   21  C5  UNL     1      23.630   4.347  51.748  1.00  0.00     0.012 C 
HETATM   22  C6  UNL     1      22.832   5.375  51.905  1.00  0.00     0.185 C 
HETATM   23 BR1  UNL     1      21.595   6.369  50.813  1.00  0.00    -0.198 Br
ENDBRANCH  17  21
ENDBRANCH  16  17
ENDBRANCH   1  16
TORSDOF 7
ENDMDL
