MODEL 1
REMARK VINA RESULT:      -8.4      0.000      0.000
REMARK  6 active torsions:
REMARK  status: ('A' for Active; 'I' for Inactive)
REMARK    1  A    between atoms: C3_3  and  C4_4 
REMARK    2  A    between atoms: C5_6  and  C6_7 
REMARK    3  A    between atoms: C6_7  and  C7_8 
REMARK    4  A    between atoms: C7_8  and  C8_9 
REMARK    5  A    between atoms: C9_10  and  C10_11 
REMARK    6  A    between atoms: C13_14  and  C14_15 
ROOT
HETATM    1  C10 UNL     1      24.643   3.189  50.107  1.00  0.00     0.017 A 
HETATM    2  C11 UNL     1      25.998   2.938  50.152  1.00  0.00     0.021 A 
HETATM    3  C12 UNL     1      26.858   3.886  49.619  1.00  0.00     0.011 A 
HETATM    4  C13 UNL     1      26.420   5.044  49.059  1.00  0.00    -0.022 A 
HETATM    5  C18 UNL     1      25.040   5.268  49.028  1.00  0.00     0.011 A 
HETATM    6  C19 UNL     1      24.120   4.359  49.546  1.00  0.00     0.021 A 
ENDROOT
BRANCH   1   7
HETATM    7  C9  UNL     1      23.677   2.242  50.644  1.00  0.00    -0.067 C 
HETATM    8  C8  UNL     1      22.872   1.459  51.067  1.00  0.00    -0.098 C 
BRANCH   8   9
HETATM    9  C7  UNL     1      21.900   0.495  51.561  1.00  0.00     0.137 C 
BRANCH   9  10
HETATM   10  C6  UNL     1      22.366   0.052  52.941  1.00  0.00     0.137 A 
HETATM   11  N2  UNL     1      21.636   0.694  54.044  1.00  0.00    -0.275 NA
HETATM   12  C20 UNL     1      21.382  -0.570  53.800  1.00  0.00     0.038 A 
HETATM   13  C21 UNL     1      20.626  -1.804  54.142  1.00  0.00     0.068 C 
BRANCH  10  14
HETATM   14  C5  UNL     1      23.812   0.083  53.218  1.00  0.00     0.230 A 
HETATM   15  C4  UNL     1      25.070  -0.074  52.923  1.00  0.00     0.086 A 
HETATM   16  F1  UNL     1      24.929   0.380  54.223  1.00  0.00    -0.357 F 
BRANCH  15  17
HETATM   17  C3  UNL     1      26.403  -0.301  52.438  1.00  0.00     0.033 C 
HETATM   18  C2  UNL     1      27.330   0.589  52.644  1.00  0.00    -0.028 C 
HETATM   19  C1  UNL     1      27.598   1.882  53.241  1.00  0.00     0.036 C 
ENDBRANCH  15  17
ENDBRANCH  10  14
ENDBRANCH   9  10
ENDBRANCH   8   9
ENDBRANCH   1   7
BRANCH   4  20
HETATM   20  C14 UNL     1      27.293   6.062  48.489  1.00  0.00     0.287 C 
HETATM   21  N1  UNL     1      27.355   7.306  49.225  1.00  0.00     0.095 N 
HETATM   22  C15 UNL     1      28.498   7.995  48.631  1.00  0.00     0.273 C 
HETATM   23  H12 UNL     1      27.642   7.076  50.205  1.00  0.00     0.316 HD
HETATM   24  C16 UNL     1      29.382   6.951  48.003  1.00  0.00     0.069 C 
HETATM   25  C17 UNL     1      28.774   5.665  48.530  1.00  0.00     0.209 C 
HETATM   26  F2  UNL     1      29.029   4.573  47.758  1.00  0.00    -0.247 F 
ENDBRANCH   4  20
TORSDOF 6
ENDMDL
MODEL 2
REMARK VINA RESULT:      -8.3      3.519      8.241
REMARK  6 active torsions:
REMARK  status: ('A' for Active; 'I' for Inactive)
REMARK    1  A    between atoms: C3_3  and  C4_4 
REMARK    2  A    between atoms: C5_6  and  C6_7 
REMARK    3  A    between atoms: C6_7  and  C7_8 
REMARK    4  A    between atoms: C7_8  and  C8_9 
REMARK    5  A    between atoms: C9_10  and  C10_11 
REMARK    6  A    between atoms: C13_14  and  C14_15 
ROOT
HETATM    1  C10 UNL     1      22.733  -0.048  53.580  1.00  0.00     0.017 A 
HETATM    2  C11 UNL     1      21.671  -0.190  54.447  1.00  0.00     0.021 A 
HETATM    3  C12 UNL     1      20.388  -0.084  53.933  1.00  0.00     0.011 A 
HETATM    4  C13 UNL     1      20.139   0.153  52.618  1.00  0.00    -0.022 A 
HETATM    5  C18 UNL     1      21.238   0.292  51.765  1.00  0.00     0.011 A 
HETATM    6  C19 UNL     1      22.554   0.196  52.214  1.00  0.00     0.021 A 
ENDROOT
BRANCH   1   7
HETATM    7  C9  UNL     1      24.110  -0.144  54.043  1.00  0.00    -0.067 C 
HETATM    8  C8  UNL     1      25.248  -0.203  54.420  1.00  0.00    -0.098 C 
BRANCH   8   9
HETATM    9  C7  UNL     1      26.624  -0.253  54.889  1.00  0.00     0.137 C 
BRANCH   9  10
HETATM   10  C6  UNL     1      27.504   0.274  53.763  1.00  0.00     0.137 A 
HETATM   11  N2  UNL     1      28.490   1.271  54.202  1.00  0.00    -0.275 NA
HETATM   12  C20 UNL     1      28.932   0.075  53.894  1.00  0.00     0.038 A 
HETATM   13  C21 UNL     1      30.079  -0.862  53.760  1.00  0.00     0.068 C 
BRANCH  10  14
HETATM   14  C5  UNL     1      26.839   0.740  52.535  1.00  0.00     0.230 A 
HETATM   15  C4  UNL     1      26.273   1.626  51.768  1.00  0.00     0.086 A 
HETATM   16  F1  UNL     1      26.307   0.392  51.141  1.00  0.00    -0.357 F 
BRANCH  15  17
HETATM   17  C3  UNL     1      25.675   2.719  51.053  1.00  0.00     0.033 C 
HETATM   18  C2  UNL     1      24.689   3.382  51.584  1.00  0.00    -0.028 C 
HETATM   19  C1  UNL     1      23.841   3.477  52.756  1.00  0.00     0.036 C 
ENDBRANCH  15  17
ENDBRANCH  10  14
ENDBRANCH   9  10
ENDBRANCH   8   9
ENDBRANCH   1   7
BRANCH   4  20
HETATM   20  C14 UNL     1      18.806   0.271  52.043  1.00  0.00     0.287 C 
HETATM   21  N1  UNL     1      18.755   0.293  50.598  1.00  0.00     0.095 N 
HETATM   22  C15 UNL     1      17.337   0.103  50.305  1.00  0.00     0.273 C 
HETATM   23  H12 UNL     1      19.234  -0.572  50.254  1.00  0.00     0.316 HD
HETATM   24  C16 UNL     1      16.714  -0.575  51.496  1.00  0.00     0.069 C 
HETATM   25  C17 UNL     1      17.932  -0.962  52.311  1.00  0.00     0.209 C 
HETATM   26  F2  UNL     1      17.682  -1.129  53.638  1.00  0.00    -0.247 F 
ENDBRANCH   4  20
TORSDOF 6
ENDMDL
MODEL 3
REMARK VINA RESULT:      -8.3      3.971      6.216
REMARK  6 active torsions:
REMARK  status: ('A' for Active; 'I' for Inactive)
REMARK    1  A    between atoms: C3_3  and  C4_4 
REMARK    2  A    between atoms: C5_6  and  C6_7 
REMARK    3  A    between atoms: C6_7  and  C7_8 
REMARK    4  A    between atoms: C7_8  and  C8_9 
REMARK    5  A    between atoms: C9_10  and  C10_11 
REMARK    6  A    between atoms: C13_14  and  C14_15 
ROOT
HETATM    1  C10 UNL     1      23.439  -0.003  52.963  1.00  0.00     0.017 A 
HETATM    2  C11 UNL     1      23.793  -0.648  54.129  1.00  0.00     0.021 A 
HETATM    3  C12 UNL     1      25.134  -0.671  54.482  1.00  0.00     0.011 A 
HETATM    4  C13 UNL     1      26.103  -0.088  53.729  1.00  0.00    -0.022 A 
HETATM    5  C18 UNL     1      25.710   0.557  52.553  1.00  0.00     0.011 A 
HETATM    6  C19 UNL     1      24.382   0.620  52.139  1.00  0.00     0.021 A 
ENDROOT
BRANCH   1   7
HETATM    7  C9  UNL     1      22.052   0.063  52.523  1.00  0.00    -0.067 C 
HETATM    8  C8  UNL     1      20.909   0.138  52.166  1.00  0.00    -0.098 C 
BRANCH   8   9
HETATM    9  C7  UNL     1      19.529   0.250  51.720  1.00  0.00     0.137 C 
BRANCH   9  10
HETATM   10  C6  UNL     1      19.504   1.257  50.578  1.00  0.00     0.137 A 
HETATM   11  N2  UNL     1      18.246   1.253  49.816  1.00  0.00    -0.275 NA
HETATM   12  C20 UNL     1      18.470   2.269  50.615  1.00  0.00     0.038 A 
HETATM   13  C21 UNL     1      18.013   3.565  51.183  1.00  0.00     0.068 C 
BRANCH  10  14
HETATM   14  C5  UNL     1      20.646   1.268  49.650  1.00  0.00     0.230 A 
HETATM   15  C4  UNL     1      21.716   1.773  49.107  1.00  0.00     0.086 A 
HETATM   16  F1  UNL     1      21.419   0.544  48.543  1.00  0.00    -0.357 F 
BRANCH  15  17
HETATM   17  C3  UNL     1      22.873   2.468  48.616  1.00  0.00     0.033 C 
HETATM   18  C2  UNL     1      23.506   3.302  49.388  1.00  0.00    -0.028 C 
HETATM   19  C1  UNL     1      23.520   3.890  50.713  1.00  0.00     0.036 C 
ENDBRANCH  15  17
ENDBRANCH  10  14
ENDBRANCH   9  10
ENDBRANCH   8   9
ENDBRANCH   1   7
BRANCH   4  20
HETATM   20  C14 UNL     1      27.520  -0.093  54.068  1.00  0.00     0.287 C 
HETATM   21  N1  UNL     1      28.273  -1.222  53.565  1.00  0.00     0.095 N 
HETATM   22  C15 UNL     1      29.662  -0.823  53.771  1.00  0.00     0.273 C 
HETATM   23  H12 UNL     1      28.138  -1.252  52.528  1.00  0.00     0.316 HD
HETATM   24  C16 UNL     1      29.698   0.681  53.841  1.00  0.00     0.069 C 
HETATM   25  C17 UNL     1      28.295   1.050  53.398  1.00  0.00     0.209 C 
HETATM   26  F2  UNL     1      27.878   2.270  53.834  1.00  0.00    -0.247 F 
ENDBRANCH   4  20
TORSDOF 6
ENDMDL
MODEL 4
REMARK VINA RESULT:      -8.2      4.219      5.893
REMARK  6 active torsions:
REMARK  status: ('A' for Active; 'I' for Inactive)
REMARK    1  A    between atoms: C3_3  and  C4_4 
REMARK    2  A    between atoms: C5_6  and  C6_7 
REMARK    3  A    between atoms: C6_7  and  C7_8 
REMARK    4  A    between atoms: C7_8  and  C8_9 
REMARK    5  A    between atoms: C9_10  and  C10_11 
REMARK    6  A    between atoms: C13_14  and  C14_15 
ROOT
HETATM    1  C10 UNL     1      24.545   2.427  52.528  1.00  0.00     0.017 A 
HETATM    2  C11 UNL     1      25.237   2.471  53.720  1.00  0.00     0.021 A 
HETATM    3  C12 UNL     1      26.452   1.807  53.796  1.00  0.00     0.011 A 
HETATM    4  C13 UNL     1      26.982   1.121  52.751  1.00  0.00    -0.022 A 
HETATM    5  C18 UNL     1      26.256   1.095  51.556  1.00  0.00     0.011 A 
HETATM    6  C19 UNL     1      25.030   1.741  51.409  1.00  0.00     0.021 A 
ENDROOT
BRANCH   1   7
HETATM    7  C9  UNL     1      23.263   3.097  52.369  1.00  0.00    -0.067 C 
HETATM    8  C8  UNL     1      22.204   3.642  52.218  1.00  0.00    -0.098 C 
BRANCH   8   9
HETATM    9  C7  UNL     1      20.912   4.283  52.024  1.00  0.00     0.137 C 
BRANCH   9  10
HETATM   10  C6  UNL     1      19.902   3.181  51.732  1.00  0.00     0.137 A 
HETATM   11  N2  UNL     1      18.510   3.573  51.997  1.00  0.00    -0.275 NA
HETATM   12  C20 UNL     1      18.884   3.467  50.743  1.00  0.00     0.038 A 
HETATM   13  C21 UNL     1      18.538   3.562  49.301  1.00  0.00     0.068 C 
BRANCH  10  14
HETATM   14  C5  UNL     1      20.159   1.848  52.300  1.00  0.00     0.230 A 
HETATM   15  C4  UNL     1      20.456   1.013  53.253  1.00  0.00     0.086 A 
HETATM   16  F1  UNL     1      20.248   0.337  52.063  1.00  0.00    -0.357 F 
BRANCH  15  17
HETATM   17  C3  UNL     1      20.797   0.232  54.410  1.00  0.00     0.033 C 
HETATM   18  C2  UNL     1      21.925  -0.415  54.449  1.00  0.00    -0.028 C 
HETATM   19  C1  UNL     1      23.134  -0.705  53.702  1.00  0.00     0.036 C 
ENDBRANCH  15  17
ENDBRANCH  10  14
ENDBRANCH   9  10
ENDBRANCH   8   9
ENDBRANCH   1   7
BRANCH   4  20
HETATM   20  C14 UNL     1      28.254   0.411  52.795  1.00  0.00     0.287 C 
HETATM   21  N1  UNL     1      29.247   0.977  53.682  1.00  0.00     0.095 N 
HETATM   22  C15 UNL     1      30.262  -0.070  53.766  1.00  0.00     0.273 C 
HETATM   23  H12 UNL     1      28.819   1.034  54.635  1.00  0.00     0.316 HD
HETATM   24  C16 UNL     1      29.598  -1.376  53.419  1.00  0.00     0.069 C 
HETATM   25  C17 UNL     1      28.131  -0.991  53.407  1.00  0.00     0.209 C 
HETATM   26  F2  UNL     1      27.348  -1.808  52.651  1.00  0.00    -0.247 F 
ENDBRANCH   4  20
TORSDOF 6
ENDMDL
MODEL 5
REMARK VINA RESULT:      -8.2      5.007      6.974
REMARK  6 active torsions:
REMARK  status: ('A' for Active; 'I' for Inactive)
REMARK    1  A    between atoms: C3_3  and  C4_4 
REMARK    2  A    between atoms: C5_6  and  C6_7 
REMARK    3  A    between atoms: C6_7  and  C7_8 
REMARK    4  A    between atoms: C7_8  and  C8_9 
REMARK    5  A    between atoms: C9_10  and  C10_11 
REMARK    6  A    between atoms: C13_14  and  C14_15 
ROOT
HETATM    1  C10 UNL     1      21.864  -0.469  53.529  1.00  0.00     0.017 A 
HETATM    2  C11 UNL     1      22.433   0.394  52.617  1.00  0.00     0.021 A 
HETATM    3  C12 UNL     1      23.797   0.631  52.702  1.00  0.00     0.011 A 
HETATM    4  C13 UNL     1      24.587   0.050  53.643  1.00  0.00    -0.022 A 
HETATM    5  C18 UNL     1      23.979  -0.819  54.554  1.00  0.00     0.011 A 
HETATM    6  C19 UNL     1      22.615  -1.103  54.525  1.00  0.00     0.021 A 
ENDROOT
BRANCH   1   7
HETATM    7  C9  UNL     1      20.440  -0.767  53.506  1.00  0.00    -0.067 C 
HETATM    8  C8  UNL     1      19.263  -1.001  53.469  1.00  0.00    -0.098 C 
BRANCH   8   9
HETATM    9  C7  UNL     1      17.839  -1.290  53.401  1.00  0.00     0.137 C 
BRANCH   9  10
HETATM   10  C6  UNL     1      17.259  -0.436  52.280  1.00  0.00     0.137 A 
HETATM   11  N2  UNL     1      16.179  -1.098  51.534  1.00  0.00    -0.275 NA
HETATM   12  C20 UNL     1      15.847  -0.127  52.351  1.00  0.00     0.038 A 
HETATM   13  C21 UNL     1      14.784   0.722  52.952  1.00  0.00     0.068 C 
BRANCH  10  14
HETATM   14  C5  UNL     1      18.202   0.191  51.339  1.00  0.00     0.230 A 
HETATM   15  C4  UNL     1      18.997   1.133  50.923  1.00  0.00     0.086 A 
HETATM   16  F1  UNL     1      18.970   0.086  50.018  1.00  0.00    -0.357 F 
BRANCH  15  17
HETATM   17  C3  UNL     1      19.829   2.262  50.611  1.00  0.00     0.033 C 
HETATM   18  C2  UNL     1      20.847   2.118  49.814  1.00  0.00    -0.028 C 
HETATM   19  C1  UNL     1      21.576   1.158  49.009  1.00  0.00     0.036 C 
ENDBRANCH  15  17
ENDBRANCH  10  14
ENDBRANCH   9  10
ENDBRANCH   8   9
ENDBRANCH   1   7
BRANCH   4  20
HETATM   20  C14 UNL     1      26.021   0.275  53.764  1.00  0.00     0.287 C 
HETATM   21  N1  UNL     1      26.583   0.001  55.068  1.00  0.00     0.095 N 
HETATM   22  C15 UNL     1      28.023   0.004  54.825  1.00  0.00     0.273 C 
HETATM   23  H12 UNL     1      26.339  -0.987  55.313  1.00  0.00     0.316 HD
HETATM   24  C16 UNL     1      28.238  -0.288  53.364  1.00  0.00     0.069 C 
HETATM   25  C17 UNL     1      26.849  -0.702  52.918  1.00  0.00     0.209 C 
HETATM   26  F2  UNL     1      26.623  -0.538  51.586  1.00  0.00    -0.247 F 
ENDBRANCH   4  20
TORSDOF 6
ENDMDL
MODEL 6
REMARK VINA RESULT:      -8.2      3.564      5.416
REMARK  6 active torsions:
REMARK  status: ('A' for Active; 'I' for Inactive)
REMARK    1  A    between atoms: C3_3  and  C4_4 
REMARK    2  A    between atoms: C5_6  and  C6_7 
REMARK    3  A    between atoms: C6_7  and  C7_8 
REMARK    4  A    between atoms: C7_8  and  C8_9 
REMARK    5  A    between atoms: C9_10  and  C10_11 
REMARK    6  A    between atoms: C13_14  and  C14_15 
ROOT
HETATM    1  C10 UNL     1      24.448   2.832  51.204  1.00  0.00     0.017 A 
HETATM    2  C11 UNL     1      23.584   3.421  52.103  1.00  0.00     0.021 A 
HETATM    3  C12 UNL     1      22.784   4.461  51.656  1.00  0.00     0.011 A 
HETATM    4  C13 UNL     1      22.819   4.919  50.377  1.00  0.00    -0.022 A 
HETATM    5  C18 UNL     1      23.707   4.301  49.491  1.00  0.00     0.011 A 
HETATM    6  C19 UNL     1      24.539   3.251  49.873  1.00  0.00     0.021 A 
ENDROOT
BRANCH   1   7
HETATM    7  C9  UNL     1      25.322   1.736  51.597  1.00  0.00    -0.067 C 
HETATM    8  C8  UNL     1      26.052   0.834  51.903  1.00  0.00    -0.098 C 
BRANCH   8   9
HETATM    9  C7  UNL     1      26.957  -0.247  52.266  1.00  0.00     0.137 C 
BRANCH   9  10
HETATM   10  C6  UNL     1      27.209  -0.140  53.764  1.00  0.00     0.137 A 
HETATM   11  N2  UNL     1      28.420  -0.845  54.209  1.00  0.00    -0.275 NA
HETATM   12  C20 UNL     1      28.455   0.466  54.181  1.00  0.00     0.038 A 
HETATM   13  C21 UNL     1      29.216   1.723  54.409  1.00  0.00     0.068 C 
BRANCH  10  14
HETATM   14  C5  UNL     1      26.091  -0.452  54.670  1.00  0.00     0.230 A 
HETATM   15  C4  UNL     1      24.870  -0.800  54.955  1.00  0.00     0.086 A 
HETATM   16  F1  UNL     1      25.596  -0.583  56.114  1.00  0.00    -0.357 F 
BRANCH  15  17
HETATM   17  C3  UNL     1      23.495  -1.191  55.095  1.00  0.00     0.033 C 
HETATM   18  C2  UNL     1      22.614  -0.793  54.224  1.00  0.00    -0.028 C 
HETATM   19  C1  UNL     1      22.434  -0.013  53.015  1.00  0.00     0.036 C 
ENDBRANCH  15  17
ENDBRANCH  10  14
ENDBRANCH   9  10
ENDBRANCH   8   9
ENDBRANCH   1   7
BRANCH   4  20
HETATM   20  C14 UNL     1      21.995   6.010  49.873  1.00  0.00     0.287 C 
HETATM   21  N1  UNL     1      20.582   5.719  49.767  1.00  0.00     0.095 N 
HETATM   22  C15 UNL     1      19.981   7.032  49.549  1.00  0.00     0.273 C 
HETATM   23  H12 UNL     1      20.254   5.410  50.711  1.00  0.00     0.316 HD
HETATM   24  C16 UNL     1      20.935   8.064  50.089  1.00  0.00     0.069 C 
HETATM   25  C17 UNL     1      21.940   7.206  50.833  1.00  0.00     0.209 C 
HETATM   26  F2  UNL     1      23.159   7.788  50.990  1.00  0.00    -0.247 F 
ENDBRANCH   4  20
TORSDOF 6
ENDMDL
MODEL 7
REMARK VINA RESULT:      -8.1      1.695      2.526
REMARK  6 active torsions:
REMARK  status: ('A' for Active; 'I' for Inactive)
REMARK    1  A    between atoms: C3_3  and  C4_4 
REMARK    2  A    between atoms: C5_6  and  C6_7 
REMARK    3  A    between atoms: C6_7  and  C7_8 
REMARK    4  A    between atoms: C7_8  and  C8_9 
REMARK    5  A    between atoms: C9_10  and  C10_11 
REMARK    6  A    between atoms: C13_14  and  C14_15 
ROOT
HETATM    1  C10 UNL     1      25.930   4.863  49.410  1.00  0.00     0.017 A 
HETATM    2  C11 UNL     1      25.611   6.203  49.466  1.00  0.00     0.021 A 
HETATM    3  C12 UNL     1      26.563   7.120  49.047  1.00  0.00     0.011 A 
HETATM    4  C13 UNL     1      27.788   6.751  48.587  1.00  0.00    -0.022 A 
HETATM    5  C18 UNL     1      28.080   5.385  48.544  1.00  0.00     0.011 A 
HETATM    6  C19 UNL     1      27.171   4.410  48.949  1.00  0.00     0.021 A 
ENDROOT
BRANCH   1   7
HETATM    7  C9  UNL     1      24.986   3.839  49.834  1.00  0.00    -0.067 C 
HETATM    8  C8  UNL     1      24.218   2.981  50.173  1.00  0.00    -0.098 C 
BRANCH   8   9
HETATM    9  C7  UNL     1      23.306   1.926  50.587  1.00  0.00     0.137 C 
BRANCH   9  10
HETATM   10  C6  UNL     1      23.847   1.348  51.889  1.00  0.00     0.137 A 
HETATM   11  N2  UNL     1      23.536   2.166  53.070  1.00  0.00    -0.275 NA
HETATM   12  C20 UNL     1      22.882   1.038  52.922  1.00  0.00     0.038 A 
HETATM   13  C21 UNL     1      21.865   0.081  53.433  1.00  0.00     0.068 C 
BRANCH  10  14
HETATM   14  C5  UNL     1      25.262   0.944  51.923  1.00  0.00     0.230 A 
HETATM   15  C4  UNL     1      26.255   0.163  52.234  1.00  0.00     0.086 A 
HETATM   16  F1  UNL     1      26.707   1.266  51.530  1.00  0.00    -0.357 F 
BRANCH  15  17
HETATM   17  C3  UNL     1      27.231  -0.803  52.657  1.00  0.00     0.033 C 
HETATM   18  C2  UNL     1      28.262  -0.423  53.353  1.00  0.00    -0.028 C 
HETATM   19  C1  UNL     1      28.909   0.728  53.953  1.00  0.00     0.036 C 
ENDBRANCH  15  17
ENDBRANCH  10  14
ENDBRANCH   9  10
ENDBRANCH   8   9
ENDBRANCH   1   7
BRANCH   4  20
HETATM   20  C14 UNL     1      28.812   7.686  48.140  1.00  0.00     0.287 C 
HETATM   21  N1  UNL     1      30.102   7.542  48.779  1.00  0.00     0.095 N 
HETATM   22  C15 UNL     1      30.985   8.357  47.947  1.00  0.00     0.273 C 
HETATM   23  H12 UNL     1      30.413   6.553  48.638  1.00  0.00     0.316 HD
HETATM   24  C16 UNL     1      30.349   8.473  46.588  1.00  0.00     0.069 C 
HETATM   25  C17 UNL     1      29.223   7.461  46.678  1.00  0.00     0.209 C 
HETATM   26  F2  UNL     1      28.195   7.697  45.819  1.00  0.00    -0.247 F 
ENDBRANCH   4  20
TORSDOF 6
ENDMDL
MODEL 8
REMARK VINA RESULT:      -8.0      2.293      3.917
REMARK  6 active torsions:
REMARK  status: ('A' for Active; 'I' for Inactive)
REMARK    1  A    between atoms: C3_3  and  C4_4 
REMARK    2  A    between atoms: C5_6  and  C6_7 
REMARK    3  A    between atoms: C6_7  and  C7_8 
REMARK    4  A    between atoms: C7_8  and  C8_9 
REMARK    5  A    between atoms: C9_10  and  C10_11 
REMARK    6  A    between atoms: C13_14  and  C14_15 
ROOT
HETATM    1  C10 UNL     1      26.273   3.725  50.036  1.00  0.00     0.017 A 
HETATM    2  C11 UNL     1      27.185   4.219  49.129  1.00  0.00     0.021 A 
HETATM    3  C12 UNL     1      26.981   5.494  48.623  1.00  0.00     0.011 A 
HETATM    4  C13 UNL     1      25.925   6.268  48.985  1.00  0.00    -0.022 A 
HETATM    5  C18 UNL     1      25.018   5.738  49.907  1.00  0.00     0.011 A 
HETATM    6  C19 UNL     1      25.162   4.465  50.455  1.00  0.00     0.021 A 
ENDROOT
BRANCH   1   7
HETATM    7  C9  UNL     1      26.416   2.395  50.611  1.00  0.00    -0.067 C 
HETATM    8  C8  UNL     1      26.551   1.295  51.071  1.00  0.00    -0.098 C 
BRANCH   8   9
HETATM    9  C7  UNL     1      26.739  -0.035  51.631  1.00  0.00     0.137 C 
BRANCH   9  10
HETATM   10  C6  UNL     1      26.220   0.001  53.062  1.00  0.00     0.137 A 
HETATM   11  N2  UNL     1      26.512  -1.221  53.826  1.00  0.00    -0.275 NA
HETATM   12  C20 UNL     1      27.197  -0.141  54.121  1.00  0.00     0.038 A 
HETATM   13  C21 UNL     1      28.242   0.515  54.950  1.00  0.00     0.068 C 
BRANCH  10  14
HETATM   14  C5  UNL     1      24.817   0.394  53.272  1.00  0.00     0.230 A 
HETATM   15  C4  UNL     1      23.750   1.108  53.057  1.00  0.00     0.086 A 
HETATM   16  F1  UNL     1      23.503   0.146  54.021  1.00  0.00    -0.357 F 
BRANCH  15  17
HETATM   17  C3  UNL     1      22.671   1.987  52.701  1.00  0.00     0.033 C 
HETATM   18  C2  UNL     1      22.343   2.141  51.451  1.00  0.00    -0.028 C 
HETATM   19  C1  UNL     1      22.667   1.734  50.098  1.00  0.00     0.036 C 
ENDBRANCH  15  17
ENDBRANCH  10  14
ENDBRANCH   9  10
ENDBRANCH   8   9
ENDBRANCH   1   7
BRANCH   4  20
HETATM   20  C14 UNL     1      25.678   7.611  48.475  1.00  0.00     0.287 C 
HETATM   21  N1  UNL     1      24.294   8.031  48.484  1.00  0.00     0.095 N 
HETATM   22  C15 UNL     1      24.374   9.467  48.231  1.00  0.00     0.273 C 
HETATM   23  H12 UNL     1      23.943   7.935  49.465  1.00  0.00     0.316 HD
HETATM   24  C16 UNL     1      25.747   9.926  48.643  1.00  0.00     0.069 C 
HETATM   25  C17 UNL     1      26.284   8.705  49.365  1.00  0.00     0.209 C 
HETATM   26  F2  UNL     1      27.642   8.634  49.403  1.00  0.00    -0.247 F 
ENDBRANCH   4  20
TORSDOF 6
ENDMDL
MODEL 9
REMARK VINA RESULT:      -7.9      3.661      5.447
REMARK  6 active torsions:
REMARK  status: ('A' for Active; 'I' for Inactive)
REMARK    1  A    between atoms: C3_3  and  C4_4 
REMARK    2  A    between atoms: C5_6  and  C6_7 
REMARK    3  A    between atoms: C6_7  and  C7_8 
REMARK    4  A    between atoms: C7_8  and  C8_9 
REMARK    5  A    between atoms: C9_10  and  C10_11 
REMARK    6  A    between atoms: C13_14  and  C14_15 
ROOT
HETATM    1  C10 UNL     1      23.603   1.496  51.475  1.00  0.00     0.017 A 
HETATM    2  C11 UNL     1      23.962   0.662  52.512  1.00  0.00     0.021 A 
HETATM    3  C12 UNL     1      25.279   0.686  52.946  1.00  0.00     0.011 A 
HETATM    4  C13 UNL     1      26.221   1.493  52.391  1.00  0.00    -0.022 A 
HETATM    5  C18 UNL     1      25.825   2.326  51.340  1.00  0.00     0.011 A 
HETATM    6  C19 UNL     1      24.519   2.353  50.856  1.00  0.00     0.021 A 
ENDROOT
BRANCH   1   7
HETATM    7  C9  UNL     1      22.241   1.527  50.962  1.00  0.00    -0.067 C 
HETATM    8  C8  UNL     1      21.122   1.571  50.529  1.00  0.00    -0.098 C 
BRANCH   8   9
HETATM    9  C7  UNL     1      19.775   1.629  49.983  1.00  0.00     0.137 C 
BRANCH   9  10
HETATM   10  C6  UNL     1      18.859   0.907  50.962  1.00  0.00     0.137 A 
HETATM   11  N2  UNL     1      17.613   1.633  51.246  1.00  0.00    -0.275 NA
HETATM   12  C20 UNL     1      17.535   0.562  50.493  1.00  0.00     0.038 A 
HETATM   13  C21 UNL     1      16.698  -0.377  49.700  1.00  0.00     0.068 C 
BRANCH  10  14
HETATM   14  C5  UNL     1      19.449   0.422  52.220  1.00  0.00     0.230 A 
HETATM   15  C4  UNL     1      19.808  -0.491  53.076  1.00  0.00     0.086 A 
HETATM   16  F1  UNL     1      20.136   0.770  53.544  1.00  0.00    -0.357 F 
BRANCH  15  17
HETATM   17  C3  UNL     1      20.136  -1.616  53.907  1.00  0.00     0.033 C 
HETATM   18  C2  UNL     1      21.225  -1.602  54.620  1.00  0.00    -0.028 C 
HETATM   19  C1  UNL     1      22.391  -0.810  54.959  1.00  0.00     0.036 C 
ENDBRANCH  15  17
ENDBRANCH  10  14
ENDBRANCH   9  10
ENDBRANCH   8   9
ENDBRANCH   1   7
BRANCH   4  20
HETATM   20  C14 UNL     1      27.613   1.544  52.819  1.00  0.00     0.287 C 
HETATM   21  N1  UNL     1      27.899   2.482  53.883  1.00  0.00     0.095 N 
HETATM   22  C15 UNL     1      29.245   2.110  54.311  1.00  0.00     0.273 C 
HETATM   23  H12 UNL     1      27.271   2.246  54.686  1.00  0.00     0.316 HD
HETATM   24  C16 UNL     1      29.468   0.675  53.912  1.00  0.00     0.069 C 
HETATM   25  C17 UNL     1      28.076   0.244  53.491  1.00  0.00     0.209 C 
HETATM   26  F2  UNL     1      28.058  -0.808  52.629  1.00  0.00    -0.247 F 
ENDBRANCH   4  20
TORSDOF 6
ENDMDL
