MODEL 1
REMARK VINA RESULT:      -7.2      0.000      0.000
REMARK  4 active torsions:
REMARK  status: ('A' for Active; 'I' for Inactive)
REMARK    1  A    between atoms: N4_11  and  C7_12 
REMARK    2  A    between atoms: C7_12  and  C8_13 
REMARK    3  A    between atoms: C8_13  and  C9_14 
REMARK    4  A    between atoms: C10_16  and  C11_17 
ROOT
HETATM    1  O1  UNL     1      22.610  -0.045  54.059  1.00  0.00    -0.101 OA
HETATM    2  C1  UNL     1      21.886  -1.007  54.417  1.00  0.00     0.383 A 
HETATM    3  N1  UNL     1      23.260  -1.140  54.712  1.00  0.00     0.146 N 
HETATM    4  C2  UNL     1      24.451  -0.525  54.240  1.00  0.00     0.274 C 
HETATM    5  C3  UNL     1      24.811   0.344  53.259  1.00  0.00     0.069 C 
HETATM    6  C4  UNL     1      24.366   1.146  52.120  1.00  0.00     0.139 C 
HETATM    7  C5  UNL     1      24.258   2.538  52.232  1.00  0.00     0.109 C 
HETATM    8  N2  UNL     1      25.066   3.091  53.045  1.00  0.00    -0.228 NA
HETATM    9  C6  UNL     1      26.105   2.302  53.681  1.00  0.00     0.235 C 
HETATM   10  N3  UNL     1      26.123   0.983  53.344  1.00  0.00    -0.245 NA
HETATM   11  N4  UNL     1      23.532   3.637  51.695  1.00  0.00    -0.357 N 
HETATM   12  C13 UNL     1      22.139   3.443  51.915  1.00  0.00     0.163 C 
HETATM   13  C14 UNL     1      21.380   2.440  51.148  1.00  0.00     0.264 C 
HETATM   14  C15 UNL     1      21.836   2.225  49.726  1.00  0.00     0.205 C 
HETATM   15  O2  UNL     1      20.726   1.830  48.952  1.00  0.00    -0.387 OA
HETATM   16  C16 UNL     1      19.783   1.149  49.686  1.00  0.00     0.198 C 
HETATM   17  C17 UNL     1      20.441   0.335  50.777  1.00  0.00     0.299 C 
HETATM   18  N5  UNL     1      21.048   1.170  51.754  1.00  0.00     0.100 NA
HETATM   19  C18 UNL     1      20.460   1.332  52.993  1.00  0.00     0.292 C 
HETATM   20  C19 UNL     1      19.797   0.332  53.797  1.00  0.00     0.153 C 
HETATM   21  N6  UNL     1      20.509  -0.878  54.123  1.00  0.00    -0.344 N 
HETATM   22  H1  UNL     1      23.210  -1.896  55.450  1.00  0.00     0.336 HD
HETATM   23  H24 UNL     1      20.695  -1.877  54.312  1.00  0.00     0.163 HD
ENDROOT
BRANCH  11  24
HETATM   24  C7  UNL     1      24.283   4.729  51.049  1.00  0.00     0.044 C 
HETATM   25  C10 UNL     1      23.431   5.570  51.612  1.00  0.00     0.119 C 
BRANCH  24  26
HETATM   26  C8  UNL     1      25.313   3.929  50.352  1.00  0.00     0.011 C 
BRANCH  26  27
HETATM   27  C9  UNL     1      26.235   3.305  49.722  1.00  0.00     0.082 C 
HETATM   28 CL1  UNL     1      27.475   4.162  48.790  1.00  0.00    -0.097 Cl
ENDBRANCH  26  27
ENDBRANCH  24  26
BRANCH  25  29
HETATM   29  C11 UNL     1      23.451   7.017  51.479  1.00  0.00     0.011 C 
HETATM   30  C12 UNL     1      22.340   7.017  50.721  1.00  0.00     0.184 C 
HETATM   31  F1  UNL     1      21.461   6.111  50.212  1.00  0.00    -0.220 F 
ENDBRANCH  25  29
ENDBRANCH  11  24
TORSDOF 4
ENDMDL
MODEL 2
REMARK VINA RESULT:      -7.2      1.395      1.608
REMARK  4 active torsions:
REMARK  status: ('A' for Active; 'I' for Inactive)
REMARK    1  A    between atoms: N4_11  and  C7_12 
REMARK    2  A    between atoms: C7_12  and  C8_13 
REMARK    3  A    between atoms: C8_13  and  C9_14 
REMARK    4  A    between atoms: C10_16  and  C11_17 
ROOT
HETATM    1  O1  UNL     1      21.546   0.762  52.703  1.00  0.00    -0.101 OA
HETATM    2  C1  UNL     1      20.648  -0.113  52.782  1.00  0.00     0.383 A 
HETATM    3  N1  UNL     1      21.864  -0.432  53.423  1.00  0.00     0.146 N 
HETATM    4  C2  UNL     1      23.200   0.043  53.334  1.00  0.00     0.274 C 
HETATM    5  C3  UNL     1      23.910   0.897  52.552  1.00  0.00     0.069 C 
HETATM    6  C4  UNL     1      23.889   1.794  51.397  1.00  0.00     0.139 C 
HETATM    7  C5  UNL     1      23.912   3.183  51.578  1.00  0.00     0.109 C 
HETATM    8  N2  UNL     1      24.522   3.595  52.616  1.00  0.00    -0.228 NA
HETATM    9  C6  UNL     1      25.250   2.655  53.447  1.00  0.00     0.235 C 
HETATM   10  N3  UNL     1      25.212   1.358  53.031  1.00  0.00    -0.245 NA
HETATM   11  N4  UNL     1      23.489   4.387  50.949  1.00  0.00    -0.357 N 
HETATM   12  C13 UNL     1      22.077   4.365  50.772  1.00  0.00     0.163 C 
HETATM   13  C14 UNL     1      21.450   3.499  49.759  1.00  0.00     0.264 C 
HETATM   14  C15 UNL     1      22.251   3.284  48.499  1.00  0.00     0.205 C 
HETATM   15  O2  UNL     1      21.360   3.066  47.430  1.00  0.00    -0.387 OA
HETATM   16  C16 UNL     1      20.181   2.483  47.832  1.00  0.00     0.198 C 
HETATM   17  C17 UNL     1      20.418   1.548  48.997  1.00  0.00     0.299 C 
HETATM   18  N5  UNL     1      20.824   2.258  50.159  1.00  0.00     0.100 NA
HETATM   19  C18 UNL     1      19.940   2.445  51.204  1.00  0.00     0.292 C 
HETATM   20  C19 UNL     1      18.974   1.507  51.725  1.00  0.00     0.153 C 
HETATM   21  N6  UNL     1      19.428   0.204  52.141  1.00  0.00    -0.344 N 
HETATM   22  H1  UNL     1      21.528  -1.205  54.064  1.00  0.00     0.336 HD
HETATM   23  H24 UNL     1      19.442  -0.818  52.299  1.00  0.00     0.163 HD
ENDROOT
BRANCH  11  24
HETATM   24  C7  UNL     1      24.507   5.399  50.609  1.00  0.00     0.044 C 
HETATM   25  C10 UNL     1      23.695   6.305  51.127  1.00  0.00     0.119 C 
BRANCH  24  26
HETATM   26  C8  UNL     1      25.524   4.516  49.998  1.00  0.00     0.011 C 
BRANCH  26  27
HETATM   27  C9  UNL     1      26.445   3.819  49.448  1.00  0.00     0.082 C 
HETATM   28 CL1  UNL     1      27.796   4.569  48.582  1.00  0.00    -0.097 Cl
ENDBRANCH  26  27
ENDBRANCH  24  26
BRANCH  25  29
HETATM   29  C11 UNL     1      23.954   7.732  51.208  1.00  0.00     0.011 C 
HETATM   30  C12 UNL     1      23.154   7.993  50.159  1.00  0.00     0.184 C 
HETATM   31  F1  UNL     1      22.366   7.303  49.290  1.00  0.00    -0.220 F 
ENDBRANCH  25  29
ENDBRANCH  11  24
TORSDOF 4
ENDMDL
MODEL 3
REMARK VINA RESULT:      -7.1     10.789     12.869
REMARK  4 active torsions:
REMARK  status: ('A' for Active; 'I' for Inactive)
REMARK    1  A    between atoms: N4_11  and  C7_12 
REMARK    2  A    between atoms: C7_12  and  C8_13 
REMARK    3  A    between atoms: C8_13  and  C9_14 
REMARK    4  A    between atoms: C10_16  and  C11_17 
ROOT
HETATM    1  O1  UNL     1      30.892   8.258  44.315  1.00  0.00    -0.101 OA
HETATM    2  C1  UNL     1      30.069   9.136  43.953  1.00  0.00     0.383 A 
HETATM    3  N1  UNL     1      31.152   8.921  43.074  1.00  0.00     0.146 N 
HETATM    4  C2  UNL     1      32.435   8.324  43.190  1.00  0.00     0.274 C 
HETATM    5  C3  UNL     1      33.219   7.816  44.177  1.00  0.00     0.069 C 
HETATM    6  C4  UNL     1      33.361   7.561  45.610  1.00  0.00     0.139 C 
HETATM    7  C5  UNL     1      33.236   6.261  46.115  1.00  0.00     0.109 C 
HETATM    8  N2  UNL     1      33.589   5.325  45.326  1.00  0.00    -0.228 NA
HETATM    9  C6  UNL     1      34.205   5.648  44.053  1.00  0.00     0.235 C 
HETATM   10  N3  UNL     1      34.356   6.977  43.798  1.00  0.00    -0.245 NA
HETATM   11  N4  UNL     1      32.855   5.565  47.295  1.00  0.00    -0.357 N 
HETATM   12  C13 UNL     1      31.514   5.899  47.637  1.00  0.00     0.163 C 
HETATM   13  C14 UNL     1      31.177   7.223  48.189  1.00  0.00     0.264 C 
HETATM   14  C15 UNL     1      32.232   7.852  49.065  1.00  0.00     0.205 C 
HETATM   15  O2  UNL     1      31.597   8.678  50.013  1.00  0.00    -0.387 OA
HETATM   16  C16 UNL     1      30.411   9.201  49.552  1.00  0.00     0.198 C 
HETATM   17  C17 UNL     1      30.480   9.447  48.061  1.00  0.00     0.299 C 
HETATM   18  N5  UNL     1      30.584   8.229  47.337  1.00  0.00     0.100 NA
HETATM   19  C18 UNL     1      29.495   7.737  46.645  1.00  0.00     0.292 C 
HETATM   20  C19 UNL     1      28.521   8.479  45.881  1.00  0.00     0.153 C 
HETATM   21  N6  UNL     1      28.983   9.354  44.833  1.00  0.00    -0.344 N 
HETATM   22  H1  UNL     1      30.756   9.360  42.196  1.00  0.00     0.336 HD
HETATM   23  H24 UNL     1      29.046  10.174  44.205  1.00  0.00     0.163 HD
ENDROOT
BRANCH  11  24
HETATM   24  C7  UNL     1      33.837   4.666  47.931  1.00  0.00     0.044 C 
HETATM   25  C10 UNL     1      33.033   3.663  47.619  1.00  0.00     0.119 C 
BRANCH  24  26
HETATM   26  C8  UNL     1      34.841   5.668  48.348  1.00  0.00     0.011 C 
BRANCH  26  27
HETATM   27  C9  UNL     1      35.732   6.484  48.767  1.00  0.00     0.082 C 
HETATM   28 CL1  UNL     1      35.776   8.175  48.238  1.00  0.00    -0.097 Cl
ENDBRANCH  26  27
ENDBRANCH  24  26
BRANCH  25  29
HETATM   29  C11 UNL     1      33.269   2.260  47.915  1.00  0.00     0.011 C 
HETATM   30  C12 UNL     1      32.404   1.858  46.967  1.00  0.00     0.184 C 
HETATM   31  F1  UNL     1      31.581   2.422  46.041  1.00  0.00    -0.220 F 
ENDBRANCH  25  29
ENDBRANCH  11  24
TORSDOF 4
ENDMDL
MODEL 4
REMARK VINA RESULT:      -7.0      1.858      2.316
REMARK  4 active torsions:
REMARK  status: ('A' for Active; 'I' for Inactive)
REMARK    1  A    between atoms: N4_11  and  C7_12 
REMARK    2  A    between atoms: C7_12  and  C8_13 
REMARK    3  A    between atoms: C8_13  and  C9_14 
REMARK    4  A    between atoms: C10_16  and  C11_17 
ROOT
HETATM    1  O1  UNL     1      23.301   0.584  53.428  1.00  0.00    -0.101 OA
HETATM    2  C1  UNL     1      23.143  -0.447  54.128  1.00  0.00     0.383 A 
HETATM    3  N1  UNL     1      24.463  -0.208  53.689  1.00  0.00     0.146 N 
HETATM    4  C2  UNL     1      25.052   0.579  52.664  1.00  0.00     0.274 C 
HETATM    5  C3  UNL     1      24.634   1.335  51.614  1.00  0.00     0.069 C 
HETATM    6  C4  UNL     1      23.492   1.813  50.837  1.00  0.00     0.139 C 
HETATM    7  C5  UNL     1      23.062   3.141  50.952  1.00  0.00     0.109 C 
HETATM    8  N2  UNL     1      23.967   3.993  51.230  1.00  0.00    -0.228 NA
HETATM    9  C6  UNL     1      25.358   3.581  51.272  1.00  0.00     0.235 C 
HETATM   10  N3  UNL     1      25.584   2.265  51.006  1.00  0.00    -0.245 NA
HETATM   11  N4  UNL     1      21.891   3.939  50.829  1.00  0.00    -0.357 N 
HETATM   12  C13 UNL     1      20.894   3.467  51.729  1.00  0.00     0.163 C 
HETATM   13  C14 UNL     1      20.179   2.204  51.478  1.00  0.00     0.264 C 
HETATM   14  C15 UNL     1      19.936   1.869  50.028  1.00  0.00     0.205 C 
HETATM   15  O2  UNL     1      18.755   1.106  49.933  1.00  0.00    -0.387 OA
HETATM   16  C16 UNL     1      18.516   0.355  51.060  1.00  0.00     0.198 C 
HETATM   17  C17 UNL     1      19.817  -0.094  51.689  1.00  0.00     0.299 C 
HETATM   18  N5  UNL     1      20.553   1.008  52.201  1.00  0.00     0.100 NA
HETATM   19  C18 UNL     1      20.614   1.232  53.563  1.00  0.00     0.292 C 
HETATM   20  C19 UNL     1      20.731   0.252  54.617  1.00  0.00     0.153 C 
HETATM   21  N6  UNL     1      21.821  -0.690  54.569  1.00  0.00    -0.344 N 
HETATM   22  H1  UNL     1      24.990  -0.823  54.371  1.00  0.00     0.336 HD
HETATM   23  H24 UNL     1      22.349  -1.574  54.663  1.00  0.00     0.163 HD
ENDROOT
BRANCH  11  24
HETATM   24  C7  UNL     1      21.896   5.054  49.863  1.00  0.00     0.044 C 
HETATM   25  C10 UNL     1      21.702   5.866  50.889  1.00  0.00     0.119 C 
BRANCH  24  26
HETATM   26  C8  UNL     1      22.111   4.287  48.618  1.00  0.00     0.011 C 
BRANCH  26  27
HETATM   27  C9  UNL     1      22.262   3.683  47.500  1.00  0.00     0.082 C 
HETATM   28 CL1  UNL     1      22.537   1.935  47.410  1.00  0.00    -0.097 Cl
ENDBRANCH  26  27
ENDBRANCH  24  26
BRANCH  25  29
HETATM   29  C11 UNL     1      21.574   7.311  50.816  1.00  0.00     0.011 C 
HETATM   30  C12 UNL     1      22.906   7.487  50.853  1.00  0.00     0.184 C 
HETATM   31  F1  UNL     1      24.028   6.719  50.926  1.00  0.00    -0.220 F 
ENDBRANCH  25  29
ENDBRANCH  11  24
TORSDOF 4
ENDMDL
MODEL 5
REMARK VINA RESULT:      -6.8      6.338      8.632
REMARK  4 active torsions:
REMARK  status: ('A' for Active; 'I' for Inactive)
REMARK    1  A    between atoms: N4_11  and  C7_12 
REMARK    2  A    between atoms: C7_12  and  C8_13 
REMARK    3  A    between atoms: C8_13  and  C9_14 
REMARK    4  A    between atoms: C10_16  and  C11_17 
ROOT
HETATM    1  O1  UNL     1      26.092   6.084  49.840  1.00  0.00    -0.101 OA
HETATM    2  C1  UNL     1      25.052   5.504  50.238  1.00  0.00     0.383 A 
HETATM    3  N1  UNL     1      26.122   4.654  49.884  1.00  0.00     0.146 N 
HETATM    4  C2  UNL     1      27.303   4.799  49.109  1.00  0.00     0.274 C 
HETATM    5  C3  UNL     1      27.863   5.735  48.298  1.00  0.00     0.069 C 
HETATM    6  C4  UNL     1      27.716   7.049  47.674  1.00  0.00     0.139 C 
HETATM    7  C5  UNL     1      28.457   8.142  48.138  1.00  0.00     0.109 C 
HETATM    8  N2  UNL     1      29.596   7.866  48.637  1.00  0.00    -0.228 NA
HETATM    9  C6  UNL     1      30.102   6.508  48.573  1.00  0.00     0.235 C 
HETATM   10  N3  UNL     1      29.281   5.608  47.965  1.00  0.00    -0.245 NA
HETATM   11  N4  UNL     1      28.397   9.560  48.229  1.00  0.00    -0.357 N 
HETATM   12  C13 UNL     1      27.241   9.945  48.965  1.00  0.00     0.163 C 
HETATM   13  C14 UNL     1      25.894   9.826  48.383  1.00  0.00     0.264 C 
HETATM   14  C15 UNL     1      25.804  10.055  46.894  1.00  0.00     0.205 C 
HETATM   15  O2  UNL     1      24.529  10.575  46.594  1.00  0.00    -0.387 OA
HETATM   16  C16 UNL     1      23.563  10.155  47.479  1.00  0.00     0.198 C 
HETATM   17  C17 UNL     1      23.860   8.755  47.969  1.00  0.00     0.299 C 
HETATM   18  N5  UNL     1      25.040   8.722  48.761  1.00  0.00     0.100 NA
HETATM   19  C18 UNL     1      24.953   8.588  50.133  1.00  0.00     0.292 C 
HETATM   20  C19 UNL     1      24.040   7.762  50.887  1.00  0.00     0.153 C 
HETATM   21  N6  UNL     1      23.977   6.353  50.592  1.00  0.00    -0.344 N 
HETATM   22  H1  UNL     1      25.816   3.770  50.378  1.00  0.00     0.336 HD
HETATM   23  H24 UNL     1      23.591   5.404  50.448  1.00  0.00     0.163 HD
ENDROOT
BRANCH  11  24
HETATM   24  C7  UNL     1      29.469  10.353  47.596  1.00  0.00     0.044 C 
HETATM   25  C10 UNL     1      29.730  10.848  48.795  1.00  0.00     0.119 C 
BRANCH  24  26
HETATM   26  C8  UNL     1      29.307   9.898  46.199  1.00  0.00     0.011 C 
BRANCH  26  27
HETATM   27  C9  UNL     1      29.210   9.439  45.009  1.00  0.00     0.082 C 
HETATM   28 CL1  UNL     1      27.789   8.526  44.471  1.00  0.00    -0.097 Cl
ENDBRANCH  26  27
ENDBRANCH  24  26
BRANCH  25  29
HETATM   29  C11 UNL     1      30.764  11.820  49.107  1.00  0.00     0.011 C 
HETATM   30  C12 UNL     1      29.868  12.814  49.236  1.00  0.00     0.184 C 
HETATM   31  F1  UNL     1      28.520  12.982  49.141  1.00  0.00    -0.220 F 
ENDBRANCH  25  29
ENDBRANCH  11  24
TORSDOF 4
ENDMDL
MODEL 6
REMARK VINA RESULT:      -6.7      9.141     12.196
REMARK  4 active torsions:
REMARK  status: ('A' for Active; 'I' for Inactive)
REMARK    1  A    between atoms: N4_11  and  C7_12 
REMARK    2  A    between atoms: C7_12  and  C8_13 
REMARK    3  A    between atoms: C8_13  and  C9_14 
REMARK    4  A    between atoms: C10_16  and  C11_17 
ROOT
HETATM    1  O1  UNL     1      33.511   5.893  45.509  1.00  0.00    -0.101 OA
HETATM    2  C1  UNL     1      34.328   5.709  44.572  1.00  0.00     0.383 A 
HETATM    3  N1  UNL     1      34.724   5.206  45.830  1.00  0.00     0.146 N 
HETATM    4  C2  UNL     1      34.334   5.446  47.174  1.00  0.00     0.274 C 
HETATM    5  C3  UNL     1      33.525   6.306  47.846  1.00  0.00     0.069 C 
HETATM    6  C4  UNL     1      32.626   7.456  47.752  1.00  0.00     0.139 C 
HETATM    7  C5  UNL     1      31.242   7.286  47.882  1.00  0.00     0.109 C 
HETATM    8  N2  UNL     1      30.871   6.324  48.629  1.00  0.00    -0.228 NA
HETATM    9  C6  UNL     1      31.857   5.575  49.385  1.00  0.00     0.235 C 
HETATM   10  N3  UNL     1      33.147   5.977  49.219  1.00  0.00    -0.245 NA
HETATM   11  N4  UNL     1      30.013   7.871  47.468  1.00  0.00    -0.357 N 
HETATM   12  C13 UNL     1      29.945   7.889  46.046  1.00  0.00     0.163 C 
HETATM   13  C14 UNL     1      30.768   8.822  45.258  1.00  0.00     0.264 C 
HETATM   14  C15 UNL     1      31.031  10.162  45.899  1.00  0.00     0.205 C 
HETATM   15  O2  UNL     1      31.190  11.124  44.882  1.00  0.00    -0.387 OA
HETATM   16  C16 UNL     1      31.699  10.590  43.721  1.00  0.00     0.198 C 
HETATM   17  C17 UNL     1      32.649   9.454  44.027  1.00  0.00     0.299 C 
HETATM   18  N5  UNL     1      31.968   8.348  44.603  1.00  0.00     0.100 NA
HETATM   19  C18 UNL     1      31.728   7.212  43.855  1.00  0.00     0.292 C 
HETATM   20  C19 UNL     1      32.604   6.582  42.896  1.00  0.00     0.153 C 
HETATM   21  N6  UNL     1      33.934   6.213  43.310  1.00  0.00    -0.344 N 
HETATM   22  H1  UNL     1      35.475   4.527  45.520  1.00  0.00     0.336 HD
HETATM   23  H24 UNL     1      34.955   6.052  43.278  1.00  0.00     0.163 HD
ENDROOT
BRANCH  11  24
HETATM   24  C7  UNL     1      29.066   8.327  48.504  1.00  0.00     0.044 C 
HETATM   25  C10 UNL     1      28.203   7.448  48.020  1.00  0.00     0.119 C 
BRANCH  24  26
HETATM   26  C8  UNL     1      29.908   9.350  49.160  1.00  0.00     0.011 C 
BRANCH  26  27
HETATM   27  C9  UNL     1      30.699  10.209  49.684  1.00  0.00     0.082 C 
HETATM   28 CL1  UNL     1      30.695  11.909  49.185  1.00  0.00    -0.097 Cl
ENDBRANCH  26  27
ENDBRANCH  24  26
BRANCH  25  29
HETATM   29  C11 UNL     1      26.859   7.215  48.517  1.00  0.00     0.011 C 
HETATM   30  C12 UNL     1      27.044   5.883  48.552  1.00  0.00     0.184 C 
HETATM   31  F1  UNL     1      28.031   4.990  48.268  1.00  0.00    -0.220 F 
ENDBRANCH  25  29
ENDBRANCH  11  24
TORSDOF 4
ENDMDL
MODEL 7
REMARK VINA RESULT:      -6.7      3.188      5.576
REMARK  4 active torsions:
REMARK  status: ('A' for Active; 'I' for Inactive)
REMARK    1  A    between atoms: N4_11  and  C7_12 
REMARK    2  A    between atoms: C7_12  and  C8_13 
REMARK    3  A    between atoms: C8_13  and  C9_14 
REMARK    4  A    between atoms: C10_16  and  C11_17 
ROOT
HETATM    1  O1  UNL     1      22.418   0.176  52.716  1.00  0.00    -0.101 OA
HETATM    2  C1  UNL     1      23.419  -0.104  53.420  1.00  0.00     0.383 A 
HETATM    3  N1  UNL     1      22.235  -0.798  53.747  1.00  0.00     0.146 N 
HETATM    4  C2  UNL     1      20.852  -0.599  53.490  1.00  0.00     0.274 C 
HETATM    5  C3  UNL     1      20.062   0.360  52.939  1.00  0.00     0.069 C 
HETATM    6  C4  UNL     1      20.005   1.689  52.332  1.00  0.00     0.139 C 
HETATM    7  C5  UNL     1      19.793   1.831  50.955  1.00  0.00     0.109 C 
HETATM    8  N2  UNL     1      19.100   0.916  50.405  1.00  0.00    -0.228 NA
HETATM    9  C6  UNL     1      18.474  -0.107  51.222  1.00  0.00     0.235 C 
HETATM   10  N3  UNL     1      18.696   0.002  52.562  1.00  0.00    -0.245 NA
HETATM   11  N4  UNL     1      20.075   2.717  49.879  1.00  0.00    -0.357 N 
HETATM   12  C13 UNL     1      21.484   2.881  49.749  1.00  0.00     0.163 C 
HETATM   13  C14 UNL     1      22.252   3.667  50.729  1.00  0.00     0.264 C 
HETATM   14  C15 UNL     1      21.528   4.847  51.329  1.00  0.00     0.205 C 
HETATM   15  O2  UNL     1      22.476   5.836  51.661  1.00  0.00    -0.387 OA
HETATM   16  C16 UNL     1      23.707   5.307  51.974  1.00  0.00     0.198 C 
HETATM   17  C17 UNL     1      23.556   3.960  52.643  1.00  0.00     0.299 C 
HETATM   18  N5  UNL     1      23.022   2.993  51.750  1.00  0.00     0.100 NA
HETATM   19  C18 UNL     1      23.838   2.016  51.214  1.00  0.00     0.292 C 
HETATM   20  C19 UNL     1      24.901   1.291  51.870  1.00  0.00     0.153 C 
HETATM   21  N6  UNL     1      24.608   0.590  53.094  1.00  0.00    -0.344 N 
HETATM   22  H1  UNL     1      22.647  -1.599  54.302  1.00  0.00     0.336 HD
HETATM   23  H24 UNL     1      24.723   0.202  54.046  1.00  0.00     0.163 HD
ENDROOT
BRANCH  11  24
HETATM   24  C7  UNL     1      18.945   3.283  49.117  1.00  0.00     0.044 C 
HETATM   25  C10 UNL     1      19.590   2.935  48.015  1.00  0.00     0.119 C 
BRANCH  24  26
HETATM   26  C8  UNL     1      18.101   3.732  50.245  1.00  0.00     0.011 C 
BRANCH  26  27
HETATM   27  C9  UNL     1      17.305   4.107  51.174  1.00  0.00     0.082 C 
HETATM   28 CL1  UNL     1      16.204   2.975  51.977  1.00  0.00    -0.097 Cl
ENDBRANCH  26  27
ENDBRANCH  24  26
BRANCH  25  29
HETATM   29  C11 UNL     1      19.126   3.150  46.656  1.00  0.00     0.011 C 
HETATM   30  C12 UNL     1      20.145   3.983  46.381  1.00  0.00     0.184 C 
HETATM   31  F1  UNL     1      21.232   4.499  47.019  1.00  0.00    -0.220 F 
ENDBRANCH  25  29
ENDBRANCH  11  24
TORSDOF 4
ENDMDL
MODEL 8
REMARK VINA RESULT:      -6.6     11.866     13.879
REMARK  4 active torsions:
REMARK  status: ('A' for Active; 'I' for Inactive)
REMARK    1  A    between atoms: N4_11  and  C7_12 
REMARK    2  A    between atoms: C7_12  and  C8_13 
REMARK    3  A    between atoms: C8_13  and  C9_14 
REMARK    4  A    between atoms: C10_16  and  C11_17 
ROOT
HETATM    1  O1  UNL     1      34.730   4.544  46.728  1.00  0.00    -0.101 OA
HETATM    2  C1  UNL     1      34.874   3.692  47.639  1.00  0.00     0.383 A 
HETATM    3  N1  UNL     1      34.723   3.168  46.338  1.00  0.00     0.146 N 
HETATM    4  C2  UNL     1      34.223   3.670  45.107  1.00  0.00     0.274 C 
HETATM    5  C3  UNL     1      33.588   4.785  44.662  1.00  0.00     0.069 C 
HETATM    6  C4  UNL     1      32.998   6.075  45.020  1.00  0.00     0.139 C 
HETATM    7  C5  UNL     1      33.653   7.269  44.693  1.00  0.00     0.109 C 
HETATM    8  N2  UNL     1      34.371   7.236  43.642  1.00  0.00    -0.228 NA
HETATM    9  C6  UNL     1      34.363   6.056  42.798  1.00  0.00     0.235 C 
HETATM   10  N3  UNL     1      33.559   5.042  43.223  1.00  0.00    -0.245 NA
HETATM   11  N4  UNL     1      33.785   8.614  45.136  1.00  0.00    -0.357 N 
HETATM   12  C13 UNL     1      34.274   8.633  46.473  1.00  0.00     0.163 C 
HETATM   13  C14 UNL     1      33.413   8.241  47.603  1.00  0.00     0.264 C 
HETATM   14  C15 UNL     1      31.950   8.578  47.456  1.00  0.00     0.205 C 
HETATM   15  O2  UNL     1      31.407   8.795  48.738  1.00  0.00    -0.387 OA
HETATM   16  C16 UNL     1      32.048   8.070  49.715  1.00  0.00     0.198 C 
HETATM   17  C17 UNL     1      32.535   6.747  49.167  1.00  0.00     0.299 C 
HETATM   18  N5  UNL     1      33.557   6.931  48.197  1.00  0.00     0.100 NA
HETATM   19  C18 UNL     1      34.873   6.654  48.513  1.00  0.00     0.292 C 
HETATM   20  C19 UNL     1      35.382   5.562  49.309  1.00  0.00     0.153 C 
HETATM   21  N6  UNL     1      35.025   4.214  48.946  1.00  0.00    -0.344 N 
HETATM   22  H1  UNL     1      35.105   2.194  46.495  1.00  0.00     0.336 HD
HETATM   23  H24 UNL     1      34.765   3.217  49.036  1.00  0.00     0.163 HD
ENDROOT
BRANCH  11  24
HETATM   24  C7  UNL     1      33.427   9.701  44.205  1.00  0.00     0.044 C 
HETATM   25  C10 UNL     1      34.702  10.054  44.218  1.00  0.00     0.119 C 
BRANCH  24  26
HETATM   26  C8  UNL     1      31.978   9.438  44.079  1.00  0.00     0.011 C 
BRANCH  26  27
HETATM   27  C9  UNL     1      30.712   9.289  43.964  1.00  0.00     0.082 C 
HETATM   28 CL1  UNL     1      29.807   8.152  44.977  1.00  0.00    -0.097 Cl
ENDBRANCH  26  27
ENDBRANCH  24  26
BRANCH  25  29
HETATM   29  C11 UNL     1      35.285  11.163  43.484  1.00  0.00     0.011 C 
HETATM   30  C12 UNL     1      36.478  10.549  43.395  1.00  0.00     0.184 C 
HETATM   31  F1  UNL     1      37.045   9.375  43.786  1.00  0.00    -0.220 F 
ENDBRANCH  25  29
ENDBRANCH  11  24
TORSDOF 4
ENDMDL
MODEL 9
REMARK VINA RESULT:      -6.6      2.596      3.860
REMARK  4 active torsions:
REMARK  status: ('A' for Active; 'I' for Inactive)
REMARK    1  A    between atoms: N4_11  and  C7_12 
REMARK    2  A    between atoms: C7_12  and  C8_13 
REMARK    3  A    between atoms: C8_13  and  C9_14 
REMARK    4  A    between atoms: C10_16  and  C11_17 
ROOT
HETATM    1  O1  UNL     1      24.938   2.386  51.559  1.00  0.00    -0.101 OA
HETATM    2  C1  UNL     1      25.137   1.316  52.185  1.00  0.00     0.383 A 
HETATM    3  N1  UNL     1      26.281   1.897  51.598  1.00  0.00     0.146 N 
HETATM    4  C2  UNL     1      26.507   2.855  50.574  1.00  0.00     0.274 C 
HETATM    5  C3  UNL     1      25.770   3.533  49.656  1.00  0.00     0.069 C 
HETATM    6  C4  UNL     1      24.444   3.750  49.078  1.00  0.00     0.139 C 
HETATM    7  C5  UNL     1      23.731   4.922  49.359  1.00  0.00     0.109 C 
HETATM    8  N2  UNL     1      24.437   5.957  49.586  1.00  0.00    -0.228 NA
HETATM    9  C6  UNL     1      25.877   5.903  49.411  1.00  0.00     0.235 C 
HETATM   10  N3  UNL     1      26.370   4.699  49.008  1.00  0.00    -0.245 NA
HETATM   11  N4  UNL     1      22.399   5.408  49.458  1.00  0.00    -0.357 N 
HETATM   12  C13 UNL     1      21.687   4.659  50.438  1.00  0.00     0.163 C 
HETATM   13  C14 UNL     1      21.267   3.272  50.178  1.00  0.00     0.264 C 
HETATM   14  C15 UNL     1      20.900   2.959  48.749  1.00  0.00     0.205 C 
HETATM   15  O2  UNL     1      19.935   1.932  48.746  1.00  0.00    -0.387 OA
HETATM   16  C16 UNL     1      20.052   1.091  49.829  1.00  0.00     0.198 C 
HETATM   17  C17 UNL     1      21.500   0.949  50.242  1.00  0.00     0.299 C 
HETATM   18  N5  UNL     1      22.019   2.173  50.743  1.00  0.00     0.100 NA
HETATM   19  C18 UNL     1      22.224   2.338  52.099  1.00  0.00     0.292 C 
HETATM   20  C19 UNL     1      22.728   1.368  53.043  1.00  0.00     0.153 C 
HETATM   21  N6  UNL     1      23.991   0.730  52.774  1.00  0.00    -0.344 N 
HETATM   22  H1  UNL     1      27.035   1.399  52.151  1.00  0.00     0.336 HD
HETATM   23  H24 UNL     1      24.724   0.001  52.723  1.00  0.00     0.163 HD
ENDROOT
BRANCH  11  24
HETATM   24  C7  UNL     1      21.994   6.535  48.597  1.00  0.00     0.044 C 
HETATM   25  C10 UNL     1      21.720   7.207  49.703  1.00  0.00     0.119 C 
BRANCH  24  26
HETATM   26  C8  UNL     1      22.249   5.926  47.274  1.00  0.00     0.011 C 
BRANCH  26  27
HETATM   27  C9  UNL     1      22.446   5.468  46.096  1.00  0.00     0.082 C 
HETATM   28 CL1  UNL     1      21.987   3.817  45.646  1.00  0.00    -0.097 Cl
ENDBRANCH  26  27
ENDBRANCH  24  26
BRANCH  25  29
HETATM   29  C11 UNL     1      21.210   8.565  49.769  1.00  0.00     0.011 C 
HETATM   30  C12 UNL     1      19.933   8.144  49.785  1.00  0.00     0.184 C 
HETATM   31  F1  UNL     1      19.256   6.963  49.756  1.00  0.00    -0.220 F 
ENDBRANCH  25  29
ENDBRANCH  11  24
TORSDOF 4
ENDMDL
