MODEL 1
REMARK VINA RESULT:      -8.2      0.000      0.000
REMARK  7 active torsions:
REMARK  status: ('A' for Active; 'I' for Inactive)
REMARK    1  A    between atoms: C4_7  and  O2_8 
REMARK    2  A    between atoms: O2_8  and  P1_9 
REMARK    3  A    between atoms: P1_9  and  C5_10 
REMARK    4  A    between atoms: C5_10  and  C6_11 
REMARK    5  A    between atoms: C6_11  and  N3_12 
REMARK    6  A    between atoms: C13_20  and  N4_21 
REMARK    7  A    between atoms: N4_21  and  C14_22 
ROOT
HETATM    1  C1  UNL     1      25.305  -0.688  55.509  1.00  0.00     0.071 C 
HETATM    2  C2  UNL     1      26.257  -0.064  54.551  1.00  0.00     0.043 C 
HETATM    3  N1  UNL     1      27.524  -0.177  54.872  1.00  0.00    -0.244 NA
HETATM    4  C3  UNL     1      28.755   0.228  54.314  1.00  0.00     0.263 C 
HETATM    5  N2  UNL     1      29.106   1.180  53.496  1.00  0.00    -0.119 NA
HETATM    6  O1  UNL     1      28.371   2.175  52.856  1.00  0.00    -0.187 OA
HETATM    7  C4  UNL     1      27.159   2.191  52.140  1.00  0.00     0.213 C 
HETATM    8  C11 UNL     1      26.050   1.519  52.404  1.00  0.00     0.081 C 
HETATM    9  C12 UNL     1      25.596   0.568  53.416  1.00  0.00     0.008 C 
HETATM   10  C13 UNL     1      24.354   0.226  53.257  1.00  0.00     0.102 C 
ENDROOT
BRANCH   7  11
HETATM   11  O2  UNL     1      27.003   2.975  51.001  1.00  0.00    -0.304 OA
BRANCH  11  12
HETATM   12  P1  UNL     1      25.409   3.174  50.292  1.00  0.00     0.024 P 
HETATM   13  H5  UNL     1      25.419   3.019  48.846  1.00  0.00     0.088 HD
BRANCH  12  14
HETATM   14  C5  UNL     1      24.696   4.849  50.767  1.00  0.00     0.091 C 
BRANCH  14  15
HETATM   15  C6  UNL     1      23.705   4.571  51.845  1.00  0.00     0.279 C 
BRANCH  15  16
HETATM   16  N3  UNL     1      22.480   5.292  51.779  1.00  0.00     0.092 N 
HETATM   17  C7  UNL     1      21.389   4.409  51.489  1.00  0.00     0.298 C 
HETATM   18  C8  UNL     1      20.871   4.689  50.113  1.00  0.00     0.198 C 
HETATM   19  O3  UNL     1      20.349   5.977  50.133  1.00  0.00    -0.388 OA
HETATM   20  C9  UNL     1      21.257   6.956  50.441  1.00  0.00     0.198 C 
HETATM   21  C10 UNL     1      22.575   6.460  50.973  1.00  0.00     0.298 C 
ENDBRANCH  15  16
ENDBRANCH  14  15
ENDBRANCH  12  14
ENDBRANCH  11  12
ENDBRANCH   7  11
BRANCH  10  22
HETATM   22  N4  UNL     1      23.256  -0.511  53.678  1.00  0.00    -0.365 N 
HETATM   23  H20 UNL     1      23.394  -1.240  54.443  1.00  0.00     0.165 HD
BRANCH  22  24
HETATM   24  C14 UNL     1      21.941  -0.359  53.153  1.00  0.00     0.033 A 
HETATM   25  C15 UNL     1      20.836  -0.746  53.882  1.00  0.00     0.032 A 
HETATM   26  C16 UNL     1      19.560  -0.592  53.349  1.00  0.00     0.046 A 
HETATM   27  C17 UNL     1      19.385  -0.046  52.075  1.00  0.00     0.138 A 
HETATM   28  F1  UNL     1      18.166   0.134  51.490  1.00  0.00    -0.204 F 
HETATM   29  C18 UNL     1      20.478   0.348  51.325  1.00  0.00     0.074 A 
HETATM   30 CL1  UNL     1      20.367   1.043  49.719  1.00  0.00    -0.081 Cl
HETATM   31  C19 UNL     1      21.720   0.174  51.900  1.00  0.00     0.056 A 
ENDBRANCH  22  24
ENDBRANCH  10  22
TORSDOF 7
ENDMDL
MODEL 2
REMARK VINA RESULT:      -7.9      6.520     10.607
REMARK  7 active torsions:
REMARK  status: ('A' for Active; 'I' for Inactive)
REMARK    1  A    between atoms: C4_7  and  O2_8 
REMARK    2  A    between atoms: O2_8  and  P1_9 
REMARK    3  A    between atoms: P1_9  and  C5_10 
REMARK    4  A    between atoms: C5_10  and  C6_11 
REMARK    5  A    between atoms: C6_11  and  N3_12 
REMARK    6  A    between atoms: C13_20  and  N4_21 
REMARK    7  A    between atoms: N4_21  and  C14_22 
ROOT
HETATM    1  C1  UNL     1      29.159   8.525  47.329  1.00  0.00     0.071 C 
HETATM    2  C2  UNL     1      28.012   7.611  47.573  1.00  0.00     0.043 C 
HETATM    3  N1  UNL     1      26.828   8.132  47.352  1.00  0.00    -0.244 NA
HETATM    4  C3  UNL     1      25.491   7.691  47.435  1.00  0.00     0.263 C 
HETATM    5  N2  UNL     1      24.888   6.756  48.115  1.00  0.00    -0.119 NA
HETATM    6  O1  UNL     1      25.361   5.823  49.034  1.00  0.00    -0.187 OA
HETATM    7  C4  UNL     1      26.463   4.948  49.065  1.00  0.00     0.213 C 
HETATM    8  C11 UNL     1      27.695   5.178  48.639  1.00  0.00     0.081 C 
HETATM    9  C12 UNL     1      28.420   6.285  48.021  1.00  0.00     0.008 C 
HETATM   10  C13 UNL     1      29.677   6.018  47.837  1.00  0.00     0.102 C 
ENDROOT
BRANCH   7  11
HETATM   11  O2  UNL     1      26.351   3.662  49.583  1.00  0.00    -0.304 OA
BRANCH  11  12
HETATM   12  P1  UNL     1      24.915   3.207  50.484  1.00  0.00     0.024 P 
HETATM   13  H5  UNL     1      24.251   4.351  51.089  1.00  0.00     0.088 HD
BRANCH  12  14
HETATM   14  C5  UNL     1      25.352   1.932  51.796  1.00  0.00     0.091 C 
BRANCH  14  15
HETATM   15  C6  UNL     1      26.814   2.088  52.036  1.00  0.00     0.279 C 
BRANCH  15  16
HETATM   16  N3  UNL     1      27.471   0.998  52.673  1.00  0.00     0.092 N 
HETATM   17  C7  UNL     1      26.515   0.093  53.240  1.00  0.00     0.298 C 
HETATM   18  C8  UNL     1      26.588   0.159  54.733  1.00  0.00     0.198 C 
HETATM   19  O3  UNL     1      27.845  -0.308  55.096  1.00  0.00    -0.388 OA
HETATM   20  C9  UNL     1      28.892   0.422  54.598  1.00  0.00     0.198 C 
HETATM   21  C10 UNL     1      28.524   1.420  53.531  1.00  0.00     0.298 C 
ENDBRANCH  15  16
ENDBRANCH  14  15
ENDBRANCH  12  14
ENDBRANCH  11  12
ENDBRANCH   7  11
BRANCH  10  22
HETATM   22  N4  UNL     1      30.927   6.415  47.383  1.00  0.00    -0.365 N 
HETATM   23  H20 UNL     1      31.049   7.414  47.033  1.00  0.00     0.165 HD
BRANCH  22  24
HETATM   24  C14 UNL     1      32.073   5.569  47.353  1.00  0.00     0.033 A 
HETATM   25  C15 UNL     1      33.345   6.094  47.439  1.00  0.00     0.032 A 
HETATM   26  C16 UNL     1      34.451   5.251  47.405  1.00  0.00     0.046 A 
HETATM   27  C17 UNL     1      34.286   3.869  47.285  1.00  0.00     0.138 A 
HETATM   28  F1  UNL     1      35.323   2.984  47.245  1.00  0.00    -0.204 F 
HETATM   29  C18 UNL     1      33.020   3.319  47.197  1.00  0.00     0.074 A 
HETATM   30 CL1  UNL     1      32.704   1.602  47.044  1.00  0.00    -0.081 Cl
HETATM   31  C19 UNL     1      31.958   4.200  47.235  1.00  0.00     0.056 A 
ENDBRANCH  22  24
ENDBRANCH  10  22
TORSDOF 7
ENDMDL
MODEL 3
REMARK VINA RESULT:      -7.9      3.970      5.815
REMARK  7 active torsions:
REMARK  status: ('A' for Active; 'I' for Inactive)
REMARK    1  A    between atoms: C4_7  and  O2_8 
REMARK    2  A    between atoms: O2_8  and  P1_9 
REMARK    3  A    between atoms: P1_9  and  C5_10 
REMARK    4  A    between atoms: C5_10  and  C6_11 
REMARK    5  A    between atoms: C6_11  and  N3_12 
REMARK    6  A    between atoms: C13_20  and  N4_21 
REMARK    7  A    between atoms: N4_21  and  C14_22 
ROOT
HETATM    1  C1  UNL     1      26.674  -0.091  53.243  1.00  0.00     0.071 C 
HETATM    2  C2  UNL     1      25.311  -0.290  53.805  1.00  0.00     0.043 C 
HETATM    3  N1  UNL     1      25.266  -0.950  54.938  1.00  0.00    -0.244 NA
HETATM    4  C3  UNL     1      24.259  -1.377  55.828  1.00  0.00     0.263 C 
HETATM    5  N2  UNL     1      22.986  -1.627  55.699  1.00  0.00    -0.119 NA
HETATM    6  O1  UNL     1      22.132  -1.561  54.601  1.00  0.00    -0.187 OA
HETATM    7  C4  UNL     1      21.910  -0.611  53.586  1.00  0.00     0.213 C 
HETATM    8  C11 UNL     1      22.809   0.124  52.951  1.00  0.00     0.081 C 
HETATM    9  C12 UNL     1      24.260   0.294  52.980  1.00  0.00     0.008 C 
HETATM   10  C13 UNL     1      24.682   1.137  52.088  1.00  0.00     0.102 C 
ENDROOT
BRANCH   7  11
HETATM   11  O2  UNL     1      20.629  -0.335  53.121  1.00  0.00    -0.304 OA
BRANCH  11  12
HETATM   12  P1  UNL     1      20.309   1.179  52.293  1.00  0.00     0.024 P 
HETATM   13  H5  UNL     1      19.442   2.061  53.059  1.00  0.00     0.088 HD
BRANCH  12  14
HETATM   14  C5  UNL     1      19.568   0.844  50.596  1.00  0.00     0.091 C 
BRANCH  14  15
HETATM   15  C6  UNL     1      19.576   2.156  49.889  1.00  0.00     0.279 C 
BRANCH  15  16
HETATM   16  N3  UNL     1      20.822   2.572  49.342  1.00  0.00     0.092 N 
HETATM   17  C7  UNL     1      20.687   3.838  48.684  1.00  0.00     0.298 C 
HETATM   18  C8  UNL     1      20.844   3.653  47.208  1.00  0.00     0.198 C 
HETATM   19  O3  UNL     1      22.149   3.227  46.990  1.00  0.00    -0.388 OA
HETATM   20  C9  UNL     1      22.469   2.038  47.593  1.00  0.00     0.198 C 
HETATM   21  C10 UNL     1      21.465   1.543  48.600  1.00  0.00     0.298 C 
ENDBRANCH  15  16
ENDBRANCH  14  15
ENDBRANCH  12  14
ENDBRANCH  11  12
ENDBRANCH   7  11
BRANCH  10  22
HETATM   22  N4  UNL     1      25.735   1.811  51.487  1.00  0.00    -0.365 N 
HETATM   23  H20 UNL     1      26.727   1.453  51.647  1.00  0.00     0.165 HD
BRANCH  22  24
HETATM   24  C14 UNL     1      25.583   2.960  50.660  1.00  0.00     0.033 A 
HETATM   25  C15 UNL     1      24.350   3.554  50.490  1.00  0.00     0.032 A 
HETATM   26  C16 UNL     1      24.222   4.674  49.676  1.00  0.00     0.046 A 
HETATM   27  C17 UNL     1      25.336   5.208  49.024  1.00  0.00     0.138 A 
HETATM   28  F1  UNL     1      25.285   6.303  48.211  1.00  0.00    -0.204 F 
HETATM   29  C18 UNL     1      26.583   4.630  49.178  1.00  0.00     0.074 A 
HETATM   30 CL1  UNL     1      28.041   5.220  48.406  1.00  0.00    -0.081 Cl
HETATM   31  C19 UNL     1      26.654   3.521  49.997  1.00  0.00     0.056 A 
ENDBRANCH  22  24
ENDBRANCH  10  22
TORSDOF 7
ENDMDL
MODEL 4
REMARK VINA RESULT:      -7.8      5.706      8.922
REMARK  7 active torsions:
REMARK  status: ('A' for Active; 'I' for Inactive)
REMARK    1  A    between atoms: C4_7  and  O2_8 
REMARK    2  A    between atoms: O2_8  and  P1_9 
REMARK    3  A    between atoms: P1_9  and  C5_10 
REMARK    4  A    between atoms: C5_10  and  C6_11 
REMARK    5  A    between atoms: C6_11  and  N3_12 
REMARK    6  A    between atoms: C13_20  and  N4_21 
REMARK    7  A    between atoms: N4_21  and  C14_22 
ROOT
HETATM    1  C1  UNL     1      24.014   3.863  49.516  1.00  0.00     0.071 C 
HETATM    2  C2  UNL     1      24.977   4.941  49.165  1.00  0.00     0.043 C 
HETATM    3  N1  UNL     1      24.432   6.069  48.775  1.00  0.00    -0.244 NA
HETATM    4  C3  UNL     1      24.897   7.332  48.354  1.00  0.00     0.263 C 
HETATM    5  N2  UNL     1      26.010   7.753  47.821  1.00  0.00    -0.119 NA
HETATM    6  O1  UNL     1      27.180   7.088  47.464  1.00  0.00    -0.187 OA
HETATM    7  C4  UNL     1      28.002   6.138  48.100  1.00  0.00     0.213 C 
HETATM    8  C11 UNL     1      27.628   5.113  48.849  1.00  0.00     0.081 C 
HETATM    9  C12 UNL     1      26.370   4.539  49.320  1.00  0.00     0.008 C 
HETATM   10  C13 UNL     1      26.543   3.458  50.015  1.00  0.00     0.102 C 
ENDROOT
BRANCH   7  11
HETATM   11  O2  UNL     1      29.388   6.193  47.993  1.00  0.00    -0.304 OA
BRANCH  11  12
HETATM   12  P1  UNL     1      30.230   7.693  48.340  1.00  0.00     0.024 P 
HETATM   13  H5  UNL     1      29.691   8.820  47.595  1.00  0.00     0.088 HD
BRANCH  12  14
HETATM   14  C5  UNL     1      32.069   7.497  47.994  1.00  0.00     0.091 C 
BRANCH  14  15
HETATM   15  C6  UNL     1      32.198   6.233  47.215  1.00  0.00     0.279 C 
BRANCH  15  16
HETATM   16  N3  UNL     1      32.619   5.083  47.940  1.00  0.00     0.092 N 
HETATM   17  C7  UNL     1      33.970   5.237  48.392  1.00  0.00     0.298 C 
HETATM   18  C8  UNL     1      34.856   4.287  47.650  1.00  0.00     0.198 C 
HETATM   19  O3  UNL     1      34.460   3.003  48.005  1.00  0.00    -0.388 OA
HETATM   20  C9  UNL     1      33.163   2.697  47.683  1.00  0.00     0.198 C 
HETATM   21  C10 UNL     1      32.316   3.869  47.263  1.00  0.00     0.298 C 
ENDBRANCH  15  16
ENDBRANCH  14  15
ENDBRANCH  12  14
ENDBRANCH  11  12
ENDBRANCH   7  11
BRANCH  10  22
HETATM   22  N4  UNL     1      26.003   2.408  50.746  1.00  0.00    -0.365 N 
HETATM   23  H20 UNL     1      24.985   2.142  50.578  1.00  0.00     0.165 HD
BRANCH  22  24
HETATM   24  C14 UNL     1      26.723   1.653  51.715  1.00  0.00     0.033 A 
HETATM   25  C15 UNL     1      27.550   2.274  52.628  1.00  0.00     0.032 A 
HETATM   26  C16 UNL     1      28.246   1.517  53.565  1.00  0.00     0.046 A 
HETATM   27  C17 UNL     1      28.117   0.126  53.591  1.00  0.00     0.138 A 
HETATM   28  F1  UNL     1      28.769  -0.677  54.479  1.00  0.00    -0.204 F 
HETATM   29  C18 UNL     1      27.295  -0.518  52.685  1.00  0.00     0.074 A 
HETATM   30 CL1  UNL     1      27.063  -2.255  52.632  1.00  0.00    -0.081 Cl
HETATM   31  C19 UNL     1      26.627   0.279  51.778  1.00  0.00     0.056 A 
ENDBRANCH  22  24
ENDBRANCH  10  22
TORSDOF 7
ENDMDL
MODEL 5
REMARK VINA RESULT:      -7.8      2.418      3.232
REMARK  7 active torsions:
REMARK  status: ('A' for Active; 'I' for Inactive)
REMARK    1  A    between atoms: C4_7  and  O2_8 
REMARK    2  A    between atoms: O2_8  and  P1_9 
REMARK    3  A    between atoms: P1_9  and  C5_10 
REMARK    4  A    between atoms: C5_10  and  C6_11 
REMARK    5  A    between atoms: C6_11  and  N3_12 
REMARK    6  A    between atoms: C13_20  and  N4_21 
REMARK    7  A    between atoms: N4_21  and  C14_22 
ROOT
HETATM    1  C1  UNL     1      25.119  -0.787  55.405  1.00  0.00     0.071 C 
HETATM    2  C2  UNL     1      26.134  -0.170  54.510  1.00  0.00     0.043 C 
HETATM    3  N1  UNL     1      27.381  -0.342  54.881  1.00  0.00    -0.244 NA
HETATM    4  C3  UNL     1      28.649   0.033  54.390  1.00  0.00     0.263 C 
HETATM    5  N2  UNL     1      29.072   0.997  53.621  1.00  0.00    -0.119 NA
HETATM    6  O1  UNL     1      28.403   2.039  52.982  1.00  0.00    -0.187 OA
HETATM    7  C4  UNL     1      27.225   2.124  52.216  1.00  0.00     0.213 C 
HETATM    8  C11 UNL     1      26.081   1.486  52.409  1.00  0.00     0.081 C 
HETATM    9  C12 UNL     1      25.548   0.523  53.369  1.00  0.00     0.008 C 
HETATM   10  C13 UNL     1      24.303   0.233  53.146  1.00  0.00     0.102 C 
ENDROOT
BRANCH   7  11
HETATM   11  O2  UNL     1      27.148   2.948  51.098  1.00  0.00    -0.304 OA
BRANCH  11  12
HETATM   12  P1  UNL     1      25.589   3.269  50.357  1.00  0.00     0.024 P 
HETATM   13  H5  UNL     1      25.494   2.736  49.007  1.00  0.00     0.088 HD
BRANCH  12  14
HETATM   14  C5  UNL     1      25.241   5.117  50.358  1.00  0.00     0.091 C 
BRANCH  14  15
HETATM   15  C6  UNL     1      25.549   5.585  48.978  1.00  0.00     0.279 C 
BRANCH  15  16
HETATM   16  N3  UNL     1      26.517   6.621  48.862  1.00  0.00     0.092 N 
HETATM   17  C7  UNL     1      25.934   7.796  48.284  1.00  0.00     0.298 C 
HETATM   18  C8  UNL     1      26.497   8.012  46.915  1.00  0.00     0.198 C 
HETATM   19  O3  UNL     1      27.852   8.275  47.072  1.00  0.00    -0.388 OA
HETATM   20  C9  UNL     1      28.566   7.262  47.658  1.00  0.00     0.198 C 
HETATM   21  C10 UNL     1      27.734   6.171  48.278  1.00  0.00     0.298 C 
ENDBRANCH  15  16
ENDBRANCH  14  15
ENDBRANCH  12  14
ENDBRANCH  11  12
ENDBRANCH   7  11
BRANCH  10  22
HETATM   22  N4  UNL     1      23.160  -0.474  53.495  1.00  0.00    -0.365 N 
HETATM   23  H20 UNL     1      23.235  -1.220  54.253  1.00  0.00     0.165 HD
BRANCH  22  24
HETATM   24  C14 UNL     1      21.881  -0.271  52.903  1.00  0.00     0.033 A 
HETATM   25  C15 UNL     1      20.725  -0.590  53.584  1.00  0.00     0.032 A 
HETATM   26  C16 UNL     1      19.485  -0.387  52.987  1.00  0.00     0.046 A 
HETATM   27  C17 UNL     1      19.398   0.142  51.697  1.00  0.00     0.138 A 
HETATM   28  F1  UNL     1      18.218   0.367  51.050  1.00  0.00    -0.204 F 
HETATM   29  C18 UNL     1      20.543   0.469  50.994  1.00  0.00     0.074 A 
HETATM   30 CL1  UNL     1      20.543   1.136  49.373  1.00  0.00    -0.081 Cl
HETATM   31  C19 UNL     1      21.746   0.247  51.633  1.00  0.00     0.056 A 
ENDBRANCH  22  24
ENDBRANCH  10  22
TORSDOF 7
ENDMDL
MODEL 6
REMARK VINA RESULT:      -7.6      3.752      6.406
REMARK  7 active torsions:
REMARK  status: ('A' for Active; 'I' for Inactive)
REMARK    1  A    between atoms: C4_7  and  O2_8 
REMARK    2  A    between atoms: O2_8  and  P1_9 
REMARK    3  A    between atoms: P1_9  and  C5_10 
REMARK    4  A    between atoms: C5_10  and  C6_11 
REMARK    5  A    between atoms: C6_11  and  N3_12 
REMARK    6  A    between atoms: C13_20  and  N4_21 
REMARK    7  A    between atoms: N4_21  and  C14_22 
ROOT
HETATM    1  C1  UNL     1      22.257  -1.320  54.445  1.00  0.00     0.071 C 
HETATM    2  C2  UNL     1      21.603  -0.468  53.416  1.00  0.00     0.043 C 
HETATM    3  N1  UNL     1      20.291  -0.484  53.433  1.00  0.00    -0.244 NA
HETATM    4  C3  UNL     1      19.256   0.126  52.694  1.00  0.00     0.263 C 
HETATM    5  N2  UNL     1      19.177   0.624  51.491  1.00  0.00    -0.119 NA
HETATM    6  O1  UNL     1      20.115   0.737  50.468  1.00  0.00    -0.187 OA
HETATM    7  C4  UNL     1      21.456   1.161  50.410  1.00  0.00     0.213 C 
HETATM    8  C11 UNL     1      22.419   0.935  51.289  1.00  0.00     0.081 C 
HETATM    9  C12 UNL     1      22.554   0.238  52.566  1.00  0.00     0.008 C 
HETATM   10  C13 UNL     1      23.767   0.264  53.024  1.00  0.00     0.102 C 
ENDROOT
BRANCH   7  11
HETATM   11  O2  UNL     1      21.931   1.915  49.341  1.00  0.00    -0.304 OA
BRANCH  11  12
HETATM   12  P1  UNL     1      21.616   3.641  49.285  1.00  0.00     0.024 P 
HETATM   13  H5  UNL     1      22.308   4.297  48.186  1.00  0.00     0.088 HD
BRANCH  12  14
HETATM   14  C5  UNL     1      22.083   4.437  50.923  1.00  0.00     0.091 C 
BRANCH  14  15
HETATM   15  C6  UNL     1      23.559   4.268  51.046  1.00  0.00     0.279 C 
BRANCH  15  16
HETATM   16  N3  UNL     1      24.319   4.462  49.858  1.00  0.00     0.092 N 
HETATM   17  C7  UNL     1      25.179   3.340  49.620  1.00  0.00     0.298 C 
HETATM   18  C8  UNL     1      26.603   3.751  49.819  1.00  0.00     0.198 C 
HETATM   19  O3  UNL     1      26.893   4.692  48.838  1.00  0.00    -0.388 OA
HETATM   20  C9  UNL     1      26.123   5.825  48.890  1.00  0.00     0.198 C 
HETATM   21  C10 UNL     1      24.929   5.746  49.804  1.00  0.00     0.298 C 
ENDBRANCH  15  16
ENDBRANCH  14  15
ENDBRANCH  12  14
ENDBRANCH  11  12
ENDBRANCH   7  11
BRANCH  10  22
HETATM   22  N4  UNL     1      24.679  -0.083  54.011  1.00  0.00    -0.365 N 
HETATM   23  H20 UNL     1      24.322  -0.228  55.005  1.00  0.00     0.165 HD
BRANCH  22  24
HETATM   24  C14 UNL     1      26.075  -0.260  53.787  1.00  0.00     0.033 A 
HETATM   25  C15 UNL     1      26.550  -1.363  53.110  1.00  0.00     0.032 A 
HETATM   26  C16 UNL     1      27.917  -1.519  52.904  1.00  0.00     0.046 A 
HETATM   27  C17 UNL     1      28.819  -0.563  53.379  1.00  0.00     0.138 A 
HETATM   28  F1  UNL     1      30.170  -0.651  53.214  1.00  0.00    -0.204 F 
HETATM   29  C18 UNL     1      28.366   0.551  54.061  1.00  0.00     0.074 A 
HETATM   30 CL1  UNL     1      29.412   1.806  54.697  1.00  0.00    -0.081 Cl
HETATM   31  C19 UNL     1      27.001   0.656  54.238  1.00  0.00     0.056 A 
ENDBRANCH  22  24
ENDBRANCH  10  22
TORSDOF 7
ENDMDL
MODEL 7
REMARK VINA RESULT:      -7.5      6.094      9.028
REMARK  7 active torsions:
REMARK  status: ('A' for Active; 'I' for Inactive)
REMARK    1  A    between atoms: C4_7  and  O2_8 
REMARK    2  A    between atoms: O2_8  and  P1_9 
REMARK    3  A    between atoms: P1_9  and  C5_10 
REMARK    4  A    between atoms: C5_10  and  C6_11 
REMARK    5  A    between atoms: C6_11  and  N3_12 
REMARK    6  A    between atoms: C13_20  and  N4_21 
REMARK    7  A    between atoms: N4_21  and  C14_22 
ROOT
HETATM    1  C1  UNL     1      24.223   5.284  50.181  1.00  0.00     0.071 C 
HETATM    2  C2  UNL     1      25.451   6.049  49.835  1.00  0.00     0.043 C 
HETATM    3  N1  UNL     1      25.393   7.336  50.084  1.00  0.00    -0.244 NA
HETATM    4  C3  UNL     1      26.259   8.440  49.939  1.00  0.00     0.263 C 
HETATM    5  N2  UNL     1      27.278   8.694  49.166  1.00  0.00    -0.119 NA
HETATM    6  O1  UNL     1      27.901   7.943  48.173  1.00  0.00    -0.187 OA
HETATM    7  C4  UNL     1      28.335   6.607  48.080  1.00  0.00     0.213 C 
HETATM    8  C11 UNL     1      27.735   5.523  48.545  1.00  0.00     0.081 C 
HETATM    9  C12 UNL     1      26.507   5.216  49.275  1.00  0.00     0.008 C 
HETATM   10  C13 UNL     1      26.339   3.942  49.454  1.00  0.00     0.102 C 
ENDROOT
BRANCH   7  11
HETATM   11  O2  UNL     1      29.527   6.277  47.444  1.00  0.00    -0.304 OA
BRANCH  11  12
HETATM   12  P1  UNL     1      31.030   7.015  47.970  1.00  0.00     0.024 P 
HETATM   13  H5  UNL     1      31.431   8.128  47.123  1.00  0.00     0.088 HD
BRANCH  12  14
HETATM   14  C5  UNL     1      32.395   5.723  48.044  1.00  0.00     0.091 C 
BRANCH  14  15
HETATM   15  C6  UNL     1      31.839   4.514  47.372  1.00  0.00     0.279 C 
BRANCH  15  16
HETATM   16  N3  UNL     1      32.641   3.934  46.349  1.00  0.00     0.092 N 
HETATM   17  C7  UNL     1      33.529   2.953  46.898  1.00  0.00     0.298 C 
HETATM   18  C8  UNL     1      34.937   3.450  46.813  1.00  0.00     0.198 C 
HETATM   19  O3  UNL     1      35.247   3.558  45.463  1.00  0.00    -0.388 OA
HETATM   20  C9  UNL     1      34.455   4.433  44.764  1.00  0.00     0.198 C 
HETATM   21  C10 UNL     1      33.229   4.909  45.497  1.00  0.00     0.298 C 
ENDBRANCH  15  16
ENDBRANCH  14  15
ENDBRANCH  12  14
ENDBRANCH  11  12
ENDBRANCH   7  11
BRANCH  10  22
HETATM   22  N4  UNL     1      25.579   2.897  49.963  1.00  0.00    -0.365 N 
HETATM   23  H20 UNL     1      24.767   2.527  49.380  1.00  0.00     0.165 HD
BRANCH  22  24
HETATM   24  C14 UNL     1      25.810   2.278  51.225  1.00  0.00     0.033 A 
HETATM   25  C15 UNL     1      24.832   1.523  51.835  1.00  0.00     0.032 A 
HETATM   26  C16 UNL     1      25.077   0.929  53.069  1.00  0.00     0.046 A 
HETATM   27  C17 UNL     1      26.313   1.091  53.700  1.00  0.00     0.138 A 
HETATM   28  F1  UNL     1      26.623   0.539  54.908  1.00  0.00    -0.204 F 
HETATM   29  C18 UNL     1      27.310   1.845  53.108  1.00  0.00     0.074 A 
HETATM   30 CL1  UNL     1      28.892   2.111  53.815  1.00  0.00    -0.081 Cl
HETATM   31  C19 UNL     1      27.014   2.411  51.885  1.00  0.00     0.056 A 
ENDBRANCH  22  24
ENDBRANCH  10  22
TORSDOF 7
ENDMDL
MODEL 8
REMARK VINA RESULT:      -7.5      5.938      8.688
REMARK  7 active torsions:
REMARK  status: ('A' for Active; 'I' for Inactive)
REMARK    1  A    between atoms: C4_7  and  O2_8 
REMARK    2  A    between atoms: O2_8  and  P1_9 
REMARK    3  A    between atoms: P1_9  and  C5_10 
REMARK    4  A    between atoms: C5_10  and  C6_11 
REMARK    5  A    between atoms: C6_11  and  N3_12 
REMARK    6  A    between atoms: C13_20  and  N4_21 
REMARK    7  A    between atoms: N4_21  and  C14_22 
ROOT
HETATM    1  C1  UNL     1      23.801   5.489  50.471  1.00  0.00     0.071 C 
HETATM    2  C2  UNL     1      25.156   5.984  50.108  1.00  0.00     0.043 C 
HETATM    3  N1  UNL     1      25.338   7.274  50.265  1.00  0.00    -0.244 NA
HETATM    4  C3  UNL     1      26.398   8.183  50.067  1.00  0.00     0.263 C 
HETATM    5  N2  UNL     1      27.458   8.185  49.309  1.00  0.00    -0.119 NA
HETATM    6  O1  UNL     1      27.945   7.258  48.390  1.00  0.00    -0.187 OA
HETATM    7  C4  UNL     1      28.122   5.862  48.404  1.00  0.00     0.213 C 
HETATM    8  C11 UNL     1      27.321   4.947  48.926  1.00  0.00     0.081 C 
HETATM    9  C12 UNL     1      26.046   4.928  49.639  1.00  0.00     0.008 C 
HETATM   10  C13 UNL     1      25.639   3.725  49.903  1.00  0.00     0.102 C 
ENDROOT
BRANCH   7  11
HETATM   11  O2  UNL     1      29.241   5.269  47.828  1.00  0.00    -0.304 OA
BRANCH  11  12
HETATM   12  P1  UNL     1      30.847   5.795  48.301  1.00  0.00     0.024 P 
HETATM   13  H5  UNL     1      30.845   6.539  49.550  1.00  0.00     0.088 HD
BRANCH  12  14
HETATM   14  C5  UNL     1      31.621   6.821  46.927  1.00  0.00     0.091 C 
BRANCH  14  15
HETATM   15  C6  UNL     1      32.696   5.968  46.346  1.00  0.00     0.279 C 
BRANCH  15  16
HETATM   16  N3  UNL     1      34.032   6.304  46.703  1.00  0.00     0.092 N 
HETATM   17  C7  UNL     1      34.648   5.228  47.423  1.00  0.00     0.298 C 
HETATM   18  C8  UNL     1      34.859   5.636  48.847  1.00  0.00     0.198 C 
HETATM   19  O3  UNL     1      35.772   6.684  48.836  1.00  0.00    -0.388 OA
HETATM   20  C9  UNL     1      35.359   7.793  48.145  1.00  0.00     0.198 C 
HETATM   21  C10 UNL     1      34.133   7.595  47.293  1.00  0.00     0.298 C 
ENDBRANCH  15  16
ENDBRANCH  14  15
ENDBRANCH  12  14
ENDBRANCH  11  12
ENDBRANCH   7  11
BRANCH  10  22
HETATM   22  N4  UNL     1      24.688   2.881  50.461  1.00  0.00    -0.365 N 
HETATM   23  H20 UNL     1      23.668   3.004  50.175  1.00  0.00     0.165 HD
BRANCH  22  24
HETATM   24  C14 UNL     1      24.983   1.852  51.400  1.00  0.00     0.033 A 
HETATM   25  C15 UNL     1      26.279   1.427  51.603  1.00  0.00     0.032 A 
HETATM   26  C16 UNL     1      26.546   0.418  52.523  1.00  0.00     0.046 A 
HETATM   27  C17 UNL     1      25.507  -0.173  53.247  1.00  0.00     0.138 A 
HETATM   28  F1  UNL     1      25.695  -1.166  54.164  1.00  0.00    -0.204 F 
HETATM   29  C18 UNL     1      24.200   0.236  53.060  1.00  0.00     0.074 A 
HETATM   30 CL1  UNL     1      22.827  -0.440  53.916  1.00  0.00    -0.081 Cl
HETATM   31  C19 UNL     1      23.991   1.240  52.136  1.00  0.00     0.056 A 
ENDBRANCH  22  24
ENDBRANCH  10  22
TORSDOF 7
ENDMDL
MODEL 9
REMARK VINA RESULT:      -7.4      3.637      5.679
REMARK  7 active torsions:
REMARK  status: ('A' for Active; 'I' for Inactive)
REMARK    1  A    between atoms: C4_7  and  O2_8 
REMARK    2  A    between atoms: O2_8  and  P1_9 
REMARK    3  A    between atoms: P1_9  and  C5_10 
REMARK    4  A    between atoms: C5_10  and  C6_11 
REMARK    5  A    between atoms: C6_11  and  N3_12 
REMARK    6  A    between atoms: C13_20  and  N4_21 
REMARK    7  A    between atoms: N4_21  and  C14_22 
ROOT
HETATM    1  C1  UNL     1      28.005   2.303  52.788  1.00  0.00     0.071 C 
HETATM    2  C2  UNL     1      26.911   1.504  53.404  1.00  0.00     0.043 C 
HETATM    3  N1  UNL     1      27.220   0.919  54.537  1.00  0.00    -0.244 NA
HETATM    4  C3  UNL     1      26.559   0.090  55.467  1.00  0.00     0.263 C 
HETATM    5  N2  UNL     1      25.543  -0.724  55.390  1.00  0.00    -0.119 NA
HETATM    6  O1  UNL     1      24.717  -1.082  54.328  1.00  0.00    -0.187 OA
HETATM    7  C4  UNL     1      24.042  -0.361  53.324  1.00  0.00     0.213 C 
HETATM    8  C11 UNL     1      24.473   0.697  52.655  1.00  0.00     0.081 C 
HETATM    9  C12 UNL     1      25.680   1.519  52.624  1.00  0.00     0.008 C 
HETATM   10  C13 UNL     1      25.629   2.446  51.717  1.00  0.00     0.102 C 
ENDROOT
BRANCH   7  11
HETATM   11  O2  UNL     1      22.763  -0.719  52.912  1.00  0.00    -0.304 OA
BRANCH  11  12
HETATM   12  P1  UNL     1      21.523  -1.052  54.109  1.00  0.00     0.024 P 
HETATM   13  H5  UNL     1      21.355  -2.476  54.355  1.00  0.00     0.088 HD
BRANCH  12  14
HETATM   14  C5  UNL     1      19.891  -0.281  53.581  1.00  0.00     0.091 C 
BRANCH  14  15
HETATM   15  C6  UNL     1      20.086   0.143  52.166  1.00  0.00     0.279 C 
BRANCH  15  16
HETATM   16  N3  UNL     1      19.739   1.487  51.854  1.00  0.00     0.092 N 
HETATM   17  C7  UNL     1      19.627   1.664  50.436  1.00  0.00     0.298 C 
HETATM   18  C8  UNL     1      20.746   2.530  49.951  1.00  0.00     0.198 C 
HETATM   19  O3  UNL     1      20.567   3.783  50.525  1.00  0.00    -0.388 OA
HETATM   20  C9  UNL     1      20.600   3.792  51.895  1.00  0.00     0.198 C 
HETATM   21  C10 UNL     1      20.545   2.434  52.545  1.00  0.00     0.298 C 
ENDBRANCH  15  16
ENDBRANCH  14  15
ENDBRANCH  12  14
ENDBRANCH  11  12
ENDBRANCH   7  11
BRANCH  10  22
HETATM   22  N4  UNL     1      26.227   3.521  51.074  1.00  0.00    -0.365 N 
HETATM   23  H20 UNL     1      27.253   3.729  51.275  1.00  0.00     0.165 HD
BRANCH  22  24
HETATM   24  C14 UNL     1      25.557   4.376  50.152  1.00  0.00     0.033 A 
HETATM   25  C15 UNL     1      24.199   4.265  49.939  1.00  0.00     0.032 A 
HETATM   26  C16 UNL     1      23.565   5.108  49.032  1.00  0.00     0.046 A 
HETATM   27  C17 UNL     1      24.293   6.073  48.332  1.00  0.00     0.138 A 
HETATM   28  F1  UNL     1      23.738   6.932  47.429  1.00  0.00    -0.204 F 
HETATM   29  C18 UNL     1      25.656   6.203  48.529  1.00  0.00     0.074 A 
HETATM   30 CL1  UNL     1      26.660   7.378  47.702  1.00  0.00    -0.081 Cl
HETATM   31  C19 UNL     1      26.235   5.342  49.439  1.00  0.00     0.056 A 
ENDBRANCH  22  24
ENDBRANCH  10  22
TORSDOF 7
ENDMDL
