MODEL 1
REMARK VINA RESULT:      -8.1      0.000      0.000
REMARK  7 active torsions:
REMARK  status: ('A' for Active; 'I' for Inactive)
REMARK    1  A    between atoms: C3_3  and  N1_4 
REMARK       I    between atoms: N1_4  and  C5_6 
REMARK       I    between atoms: C5_6  and  N2_8 
REMARK    2  A    between atoms: N2_8  and  C6_9 
REMARK    3  A    between atoms: N2_8  and  C13_17 
REMARK    4  A    between atoms: C6_9  and  C7_10 
REMARK    5  A    between atoms: C10_13  and  O2_14 
REMARK    6  A    between atoms: C13_17  and  C14_18 
REMARK    7  A    between atoms: C21_25  and  O3_26 
ROOT
HETATM    1  N1  UNL     1      25.659   5.876  49.870  1.00  0.00    -0.315 N 
HETATM    2  C4  UNL     1      26.358   6.487  48.762  1.00  0.00     0.160 C 
HETATM    3  C5  UNL     1      25.846   4.489  50.097  1.00  0.00     0.324 C 
HETATM    4  O1  UNL     1      26.647   3.885  49.345  1.00  0.00    -0.247 OA
HETATM    5  N2  UNL     1      25.438   3.417  50.930  1.00  0.00    -0.325 N 
ENDROOT
BRANCH   5   6
HETATM    6  C6  UNL     1      26.117   2.165  50.670  1.00  0.00     0.166 C 
BRANCH   6   7
HETATM    7  C7  UNL     1      26.808   1.566  51.811  1.00  0.00    -0.040 A 
HETATM    8  C8  UNL     1      26.642   0.192  52.048  1.00  0.00     0.011 A 
HETATM    9  C9  UNL     1      27.239  -0.475  53.080  1.00  0.00     0.037 A 
HETATM   10  C10 UNL     1      28.057   0.190  53.964  1.00  0.00     0.065 A 
HETATM   11  C11 UNL     1      28.262   1.525  53.793  1.00  0.00     0.037 A 
HETATM   12  C12 UNL     1      27.639   2.152  52.738  1.00  0.00     0.011 A 
BRANCH  10  13
HETATM   13  O2  UNL     1      28.682  -0.447  55.026  1.00  0.00    -0.361 OA
HETATM   14  H13 UNL     1      28.672  -1.457  55.096  1.00  0.00     0.217 HD
ENDBRANCH  10  13
ENDBRANCH   6   7
ENDBRANCH   5   6
BRANCH   5  15
HETATM   15  C13 UNL     1      24.406   3.347  51.983  1.00  0.00     0.169 C 
BRANCH  15  16
HETATM   16  C14 UNL     1      23.385   2.316  51.679  1.00  0.00    -0.006 A 
HETATM   17  C15 UNL     1      23.231   1.311  52.642  1.00  0.00     0.018 A 
HETATM   18  C16 UNL     1      22.358   0.248  52.595  1.00  0.00    -0.061 A 
HETATM   19  C17 UNL     1      22.284  -0.763  53.680  1.00  0.00     0.048 C 
HETATM   20  C18 UNL     1      21.543   0.149  51.495  1.00  0.00     0.016 A 
HETATM   21  C19 UNL     1      21.648   1.108  50.515  1.00  0.00    -0.028 A 
HETATM   22  C20 UNL     1      20.801   1.090  49.271  1.00  0.00     0.051 C 
HETATM   23  C21 UNL     1      22.539   2.151  50.612  1.00  0.00     0.079 A 
BRANCH  23  24
HETATM   24  O3  UNL     1      22.647   3.117  49.628  1.00  0.00    -0.360 OA
HETATM   25  H26 UNL     1      22.060   3.939  49.730  1.00  0.00     0.217 HD
ENDBRANCH  23  24
ENDBRANCH  15  16
ENDBRANCH   5  15
BRANCH   1  26
HETATM   26  C3  UNL     1      24.927   6.948  50.437  1.00  0.00     0.090 C 
HETATM   27  C2  UNL     1      23.703   7.250  50.767  1.00  0.00    -0.014 C 
HETATM   28  C1  UNL     1      22.331   6.758  50.791  1.00  0.00     0.037 C 
ENDBRANCH   1  26
TORSDOF 7
ENDMDL
MODEL 2
REMARK VINA RESULT:      -7.9      1.005      1.941
REMARK  7 active torsions:
REMARK  status: ('A' for Active; 'I' for Inactive)
REMARK    1  A    between atoms: C3_3  and  N1_4 
REMARK       I    between atoms: N1_4  and  C5_6 
REMARK       I    between atoms: C5_6  and  N2_8 
REMARK    2  A    between atoms: N2_8  and  C6_9 
REMARK    3  A    between atoms: N2_8  and  C13_17 
REMARK    4  A    between atoms: C6_9  and  C7_10 
REMARK    5  A    between atoms: C10_13  and  O2_14 
REMARK    6  A    between atoms: C13_17  and  C14_18 
REMARK    7  A    between atoms: C21_25  and  O3_26 
ROOT
HETATM    1  N1  UNL     1      25.981   5.972  49.607  1.00  0.00    -0.315 N 
HETATM    2  C4  UNL     1      26.778   6.527  48.537  1.00  0.00     0.160 C 
HETATM    3  C5  UNL     1      26.095   4.585  49.879  1.00  0.00     0.324 C 
HETATM    4  O1  UNL     1      26.920   3.931  49.197  1.00  0.00    -0.247 OA
HETATM    5  N2  UNL     1      25.588   3.551  50.707  1.00  0.00    -0.325 N 
ENDROOT
BRANCH   5   6
HETATM    6  C6  UNL     1      26.232   2.267  50.522  1.00  0.00     0.166 C 
BRANCH   6   7
HETATM    7  C7  UNL     1      26.828   1.676  51.719  1.00  0.00    -0.040 A 
HETATM    8  C8  UNL     1      26.559   0.328  52.004  1.00  0.00     0.011 A 
HETATM    9  C9  UNL     1      27.061  -0.331  53.090  1.00  0.00     0.037 A 
HETATM   10  C10 UNL     1      27.881   0.318  53.985  1.00  0.00     0.065 A 
HETATM   11  C11 UNL     1      28.183   1.627  53.770  1.00  0.00     0.037 A 
HETATM   12  C12 UNL     1      27.653   2.247  52.661  1.00  0.00     0.011 A 
BRANCH  10  13
HETATM   13  O2  UNL     1      28.413  -0.311  55.101  1.00  0.00    -0.361 OA
HETATM   14  H13 UNL     1      28.094  -1.234  55.370  1.00  0.00     0.217 HD
ENDBRANCH  10  13
ENDBRANCH   6   7
ENDBRANCH   5   6
BRANCH   5  15
HETATM   15  C13 UNL     1      24.486   3.549  51.687  1.00  0.00     0.169 C 
BRANCH  15  16
HETATM   16  C14 UNL     1      23.477   2.510  51.372  1.00  0.00    -0.006 A 
HETATM   17  C15 UNL     1      22.915   2.579  50.091  1.00  0.00     0.018 A 
HETATM   18  C16 UNL     1      21.963   1.738  49.560  1.00  0.00    -0.061 A 
HETATM   19  C17 UNL     1      21.437   1.909  48.183  1.00  0.00     0.048 C 
HETATM   20  C18 UNL     1      21.506   0.718  50.358  1.00  0.00     0.016 A 
HETATM   21  C19 UNL     1      22.022   0.600  51.627  1.00  0.00    -0.028 A 
HETATM   22  C20 UNL     1      21.590  -0.483  52.579  1.00  0.00     0.051 C 
HETATM   23  C21 UNL     1      22.973   1.469  52.109  1.00  0.00     0.079 A 
BRANCH  23  24
HETATM   24  O3  UNL     1      23.494   1.353  53.384  1.00  0.00    -0.360 OA
HETATM   25  H26 UNL     1      22.879   0.967  54.095  1.00  0.00     0.217 HD
ENDBRANCH  23  24
ENDBRANCH  15  16
ENDBRANCH   5  15
BRANCH   1  26
HETATM   26  C3  UNL     1      25.257   7.086  50.099  1.00  0.00     0.090 C 
HETATM   27  C2  UNL     1      24.059   7.387  50.515  1.00  0.00    -0.014 C 
HETATM   28  C1  UNL     1      22.723   6.854  50.754  1.00  0.00     0.037 C 
ENDBRANCH   1  26
TORSDOF 7
ENDMDL
MODEL 3
REMARK VINA RESULT:      -7.6      2.117      4.449
REMARK  7 active torsions:
REMARK  status: ('A' for Active; 'I' for Inactive)
REMARK    1  A    between atoms: C3_3  and  N1_4 
REMARK       I    between atoms: N1_4  and  C5_6 
REMARK       I    between atoms: C5_6  and  N2_8 
REMARK    2  A    between atoms: N2_8  and  C6_9 
REMARK    3  A    between atoms: N2_8  and  C13_17 
REMARK    4  A    between atoms: C6_9  and  C7_10 
REMARK    5  A    between atoms: C10_13  and  O2_14 
REMARK    6  A    between atoms: C13_17  and  C14_18 
REMARK    7  A    between atoms: C21_25  and  O3_26 
ROOT
HETATM    1  N1  UNL     1      21.452   2.229  50.133  1.00  0.00    -0.315 N 
HETATM    2  C4  UNL     1      20.598   1.534  49.197  1.00  0.00     0.160 C 
HETATM    3  C5  UNL     1      22.160   1.461  51.092  1.00  0.00     0.324 C 
HETATM    4  O1  UNL     1      22.035   0.214  51.038  1.00  0.00    -0.247 OA
HETATM    5  N2  UNL     1      23.043   1.570  52.196  1.00  0.00    -0.325 N 
ENDROOT
BRANCH   5   6
HETATM    6  C6  UNL     1      23.494   0.302  52.730  1.00  0.00     0.166 C 
BRANCH   6   7
HETATM    7  C7  UNL     1      24.891   0.249  53.155  1.00  0.00    -0.040 A 
HETATM    8  C8  UNL     1      25.892   0.254  52.170  1.00  0.00     0.011 A 
HETATM    9  C9  UNL     1      27.228   0.210  52.448  1.00  0.00     0.037 A 
HETATM   10  C10 UNL     1      27.671   0.156  53.750  1.00  0.00     0.065 A 
HETATM   11  C11 UNL     1      26.755   0.149  54.756  1.00  0.00     0.037 A 
HETATM   12  C12 UNL     1      25.419   0.195  54.425  1.00  0.00     0.011 A 
BRANCH  10  13
HETATM   13  O2  UNL     1      29.018   0.110  54.078  1.00  0.00    -0.361 OA
HETATM   14  H13 UNL     1      29.574  -0.703  53.846  1.00  0.00     0.217 HD
ENDBRANCH  10  13
ENDBRANCH   6   7
ENDBRANCH   5   6
BRANCH   5  15
HETATM   15  C13 UNL     1      23.543   2.753  52.923  1.00  0.00     0.169 C 
BRANCH  15  16
HETATM   16  C14 UNL     1      24.027   3.801  51.992  1.00  0.00    -0.006 A 
HETATM   17  C15 UNL     1      25.057   3.414  51.125  1.00  0.00     0.018 A 
HETATM   18  C16 UNL     1      25.675   4.196  50.175  1.00  0.00    -0.061 A 
HETATM   19  C17 UNL     1      26.762   3.677  49.309  1.00  0.00     0.048 C 
HETATM   20  C18 UNL     1      25.247   5.495  50.052  1.00  0.00     0.016 A 
HETATM   21  C19 UNL     1      24.238   5.932  50.877  1.00  0.00    -0.028 A 
HETATM   22  C20 UNL     1      23.697   7.336  50.821  1.00  0.00     0.051 C 
HETATM   23  C21 UNL     1      23.654   5.108  51.811  1.00  0.00     0.079 A 
BRANCH  23  24
HETATM   24  O3  UNL     1      22.639   5.544  52.642  1.00  0.00    -0.360 OA
HETATM   25  H26 UNL     1      22.873   5.667  53.622  1.00  0.00     0.217 HD
ENDBRANCH  23  24
ENDBRANCH  15  16
ENDBRANCH   5  15
BRANCH   1  26
HETATM   26  C3  UNL     1      21.300   3.591  49.778  1.00  0.00     0.090 C 
HETATM   27  C2  UNL     1      21.693   4.427  48.858  1.00  0.00    -0.014 C 
HETATM   28  C1  UNL     1      22.494   4.560  47.647  1.00  0.00     0.037 C 
ENDBRANCH   1  26
TORSDOF 7
ENDMDL
MODEL 4
REMARK VINA RESULT:      -7.5      1.925      5.565
REMARK  7 active torsions:
REMARK  status: ('A' for Active; 'I' for Inactive)
REMARK    1  A    between atoms: C3_3  and  N1_4 
REMARK       I    between atoms: N1_4  and  C5_6 
REMARK       I    between atoms: C5_6  and  N2_8 
REMARK    2  A    between atoms: N2_8  and  C6_9 
REMARK    3  A    between atoms: N2_8  and  C13_17 
REMARK    4  A    between atoms: C6_9  and  C7_10 
REMARK    5  A    between atoms: C10_13  and  O2_14 
REMARK    6  A    between atoms: C13_17  and  C14_18 
REMARK    7  A    between atoms: C21_25  and  O3_26 
ROOT
HETATM    1  N1  UNL     1      21.506   2.513  50.378  1.00  0.00    -0.315 N 
HETATM    2  C4  UNL     1      20.511   2.133  49.400  1.00  0.00     0.160 C 
HETATM    3  C5  UNL     1      22.838   2.711  49.936  1.00  0.00     0.324 C 
HETATM    4  O1  UNL     1      23.063   2.586  48.708  1.00  0.00    -0.247 OA
HETATM    5  N2  UNL     1      24.143   3.028  50.392  1.00  0.00    -0.325 N 
ENDROOT
BRANCH   5   6
HETATM    6  C6  UNL     1      25.128   3.164  49.339  1.00  0.00     0.166 C 
BRANCH   6   7
HETATM    7  C7  UNL     1      25.716   4.494  49.185  1.00  0.00    -0.040 A 
HETATM    8  C8  UNL     1      27.074   4.589  48.844  1.00  0.00     0.011 A 
HETATM    9  C9  UNL     1      27.730   5.775  48.672  1.00  0.00     0.037 A 
HETATM   10  C10 UNL     1      27.067   6.971  48.830  1.00  0.00     0.065 A 
HETATM   11  C11 UNL     1      25.748   6.952  49.161  1.00  0.00     0.037 A 
HETATM   12  C12 UNL     1      25.131   5.732  49.324  1.00  0.00     0.011 A 
BRANCH  10  13
HETATM   13  O2  UNL     1      27.693   8.198  48.666  1.00  0.00    -0.361 OA
HETATM   14  H13 UNL     1      27.647   8.899  49.395  1.00  0.00     0.217 HD
ENDBRANCH  10  13
ENDBRANCH   6   7
ENDBRANCH   5   6
BRANCH   5  15
HETATM   15  C13 UNL     1      24.678   3.195  51.757  1.00  0.00     0.169 C 
BRANCH  15  16
HETATM   16  C14 UNL     1      25.085   1.896  52.346  1.00  0.00    -0.006 A 
HETATM   17  C15 UNL     1      24.058   1.149  52.938  1.00  0.00     0.018 A 
HETATM   18  C16 UNL     1      24.176  -0.078  53.550  1.00  0.00    -0.061 A 
HETATM   19  C17 UNL     1      23.012  -0.779  54.147  1.00  0.00     0.048 C 
HETATM   20  C18 UNL     1      25.426  -0.644  53.592  1.00  0.00     0.016 A 
HETATM   21  C19 UNL     1      26.475   0.043  53.027  1.00  0.00    -0.028 A 
HETATM   22  C20 UNL     1      27.882  -0.490  53.020  1.00  0.00     0.051 C 
HETATM   23  C21 UNL     1      26.301   1.268  52.427  1.00  0.00     0.079 A 
BRANCH  23  24
HETATM   24  O3  UNL     1      27.353   1.962  51.857  1.00  0.00    -0.360 OA
HETATM   25  H26 UNL     1      27.379   1.998  50.843  1.00  0.00     0.217 HD
ENDBRANCH  23  24
ENDBRANCH  15  16
ENDBRANCH   5  15
BRANCH   1  26
HETATM   26  C3  UNL     1      20.778   2.571  51.591  1.00  0.00     0.090 C 
HETATM   27  C2  UNL     1      20.181   1.771  52.430  1.00  0.00    -0.014 C 
HETATM   28  C1  UNL     1      19.857   0.377  52.706  1.00  0.00     0.037 C 
ENDBRANCH   1  26
TORSDOF 7
ENDMDL
MODEL 5
REMARK VINA RESULT:      -7.5      2.050      2.949
REMARK  7 active torsions:
REMARK  status: ('A' for Active; 'I' for Inactive)
REMARK    1  A    between atoms: C3_3  and  N1_4 
REMARK       I    between atoms: N1_4  and  C5_6 
REMARK       I    between atoms: C5_6  and  N2_8 
REMARK    2  A    between atoms: N2_8  and  C6_9 
REMARK    3  A    between atoms: N2_8  and  C13_17 
REMARK    4  A    between atoms: C6_9  and  C7_10 
REMARK    5  A    between atoms: C10_13  and  O2_14 
REMARK    6  A    between atoms: C13_17  and  C14_18 
REMARK    7  A    between atoms: C21_25  and  O3_26 
ROOT
HETATM    1  N1  UNL     1      22.593   4.562  50.413  1.00  0.00    -0.315 N 
HETATM    2  C4  UNL     1      22.541   6.003  50.316  1.00  0.00     0.160 C 
HETATM    3  C5  UNL     1      23.323   3.988  51.485  1.00  0.00     0.324 C 
HETATM    4  O1  UNL     1      23.843   4.772  52.313  1.00  0.00    -0.247 OA
HETATM    5  N2  UNL     1      23.729   2.746  52.036  1.00  0.00    -0.325 N 
ENDROOT
BRANCH   5   6
HETATM    6  C6  UNL     1      24.449   2.854  53.288  1.00  0.00     0.166 C 
BRANCH   6   7
HETATM    7  C7  UNL     1      25.689   2.086  53.378  1.00  0.00    -0.040 A 
HETATM    8  C8  UNL     1      25.830   1.161  54.424  1.00  0.00     0.011 A 
HETATM    9  C9  UNL     1      26.941   0.388  54.607  1.00  0.00     0.037 A 
HETATM   10  C10 UNL     1      28.010   0.484  53.746  1.00  0.00     0.065 A 
HETATM   11  C11 UNL     1      27.941   1.362  52.708  1.00  0.00     0.037 A 
HETATM   12  C12 UNL     1      26.800   2.118  52.566  1.00  0.00     0.011 A 
BRANCH  10  13
HETATM   13  O2  UNL     1      29.158  -0.281  53.894  1.00  0.00    -0.361 OA
HETATM   14  H13 UNL     1      29.102  -1.291  53.913  1.00  0.00     0.217 HD
ENDBRANCH  10  13
ENDBRANCH   6   7
ENDBRANCH   5   6
BRANCH   5  15
HETATM   15  C13 UNL     1      23.585   1.368  51.529  1.00  0.00     0.169 C 
BRANCH  15  16
HETATM   16  C14 UNL     1      22.493   0.642  52.221  1.00  0.00    -0.006 A 
HETATM   17  C15 UNL     1      22.879  -0.117  53.333  1.00  0.00     0.018 A 
HETATM   18  C16 UNL     1      22.061  -0.877  54.139  1.00  0.00    -0.061 A 
HETATM   19  C17 UNL     1      22.584  -1.645  55.296  1.00  0.00     0.048 C 
HETATM   20  C18 UNL     1      20.723  -0.903  53.834  1.00  0.00     0.016 A 
HETATM   21  C19 UNL     1      20.284  -0.176  52.752  1.00  0.00    -0.028 A 
HETATM   22  C20 UNL     1      18.839  -0.137  52.335  1.00  0.00     0.051 C 
HETATM   23  C21 UNL     1      21.145   0.567  51.979  1.00  0.00     0.079 A 
BRANCH  23  24
HETATM   24  O3  UNL     1      20.708   1.300  50.891  1.00  0.00    -0.360 OA
HETATM   25  H26 UNL     1      20.698   0.823  49.994  1.00  0.00     0.217 HD
ENDBRANCH  23  24
ENDBRANCH  15  16
ENDBRANCH   5  15
BRANCH   1  26
HETATM   26  C3  UNL     1      21.834   4.123  49.300  1.00  0.00     0.090 C 
HETATM   27  C2  UNL     1      21.880   3.222  48.360  1.00  0.00    -0.014 C 
HETATM   28  C1  UNL     1      22.664   2.118  47.819  1.00  0.00     0.037 C 
ENDBRANCH   1  26
TORSDOF 7
ENDMDL
MODEL 6
REMARK VINA RESULT:      -7.4      2.277      5.723
REMARK  7 active torsions:
REMARK  status: ('A' for Active; 'I' for Inactive)
REMARK    1  A    between atoms: C3_3  and  N1_4 
REMARK       I    between atoms: N1_4  and  C5_6 
REMARK       I    between atoms: C5_6  and  N2_8 
REMARK    2  A    between atoms: N2_8  and  C6_9 
REMARK    3  A    between atoms: N2_8  and  C13_17 
REMARK    4  A    between atoms: C6_9  and  C7_10 
REMARK    5  A    between atoms: C10_13  and  O2_14 
REMARK    6  A    between atoms: C13_17  and  C14_18 
REMARK    7  A    between atoms: C21_25  and  O3_26 
ROOT
HETATM    1  N1  UNL     1      25.812   6.412  49.671  1.00  0.00    -0.315 N 
HETATM    2  C4  UNL     1      26.237   7.780  49.862  1.00  0.00     0.160 C 
HETATM    3  C5  UNL     1      24.848   5.879  50.563  1.00  0.00     0.324 C 
HETATM    4  O1  UNL     1      24.389   6.647  51.442  1.00  0.00    -0.247 OA
HETATM    5  N2  UNL     1      24.131   4.696  50.874  1.00  0.00    -0.325 N 
ENDROOT
BRANCH   5   6
HETATM    6  C6  UNL     1      23.161   4.847  51.938  1.00  0.00     0.166 C 
BRANCH   6   7
HETATM    7  C7  UNL     1      21.773   4.557  51.581  1.00  0.00    -0.040 A 
HETATM    8  C8  UNL     1      21.098   3.545  52.282  1.00  0.00     0.011 A 
HETATM    9  C9  UNL     1      19.803   3.189  52.037  1.00  0.00     0.037 A 
HETATM   10  C10 UNL     1      19.074   3.826  51.059  1.00  0.00     0.065 A 
HETATM   11  C11 UNL     1      19.667   4.819  50.340  1.00  0.00     0.037 A 
HETATM   12  C12 UNL     1      20.974   5.141  50.625  1.00  0.00     0.011 A 
BRANCH  10  13
HETATM   13  O2  UNL     1      17.757   3.497  50.776  1.00  0.00    -0.361 OA
HETATM   14  H13 UNL     1      17.179   3.049  51.476  1.00  0.00     0.217 HD
ENDBRANCH  10  13
ENDBRANCH   6   7
ENDBRANCH   5   6
BRANCH   5  15
HETATM   15  C13 UNL     1      24.239   3.328  50.333  1.00  0.00     0.169 C 
BRANCH  15  16
HETATM   16  C14 UNL     1      24.899   2.411  51.294  1.00  0.00    -0.006 A 
HETATM   17  C15 UNL     1      24.072   1.440  51.872  1.00  0.00     0.018 A 
HETATM   18  C16 UNL     1      24.440   0.480  52.787  1.00  0.00    -0.061 A 
HETATM   19  C17 UNL     1      23.471  -0.503  53.336  1.00  0.00     0.048 C 
HETATM   20  C18 UNL     1      25.754   0.457  53.185  1.00  0.00     0.016 A 
HETATM   21  C19 UNL     1      26.615   1.387  52.650  1.00  0.00    -0.028 A 
HETATM   22  C20 UNL     1      28.072   1.447  53.019  1.00  0.00     0.051 C 
HETATM   23  C21 UNL     1      26.194   2.326  51.738  1.00  0.00     0.079 A 
BRANCH  23  24
HETATM   24  O3  UNL     1      27.057   3.263  51.198  1.00  0.00    -0.360 OA
HETATM   25  H26 UNL     1      27.380   3.997  51.820  1.00  0.00     0.217 HD
ENDBRANCH  23  24
ENDBRANCH  15  16
ENDBRANCH   5  15
BRANCH   1  26
HETATM   26  C3  UNL     1      26.563   5.982  48.550  1.00  0.00     0.090 C 
HETATM   27  C2  UNL     1      27.800   5.934  48.142  1.00  0.00    -0.014 C 
HETATM   28  C1  UNL     1      29.176   6.254  48.503  1.00  0.00     0.037 C 
ENDBRANCH   1  26
TORSDOF 7
ENDMDL
MODEL 7
REMARK VINA RESULT:      -7.3      2.798      5.430
REMARK  7 active torsions:
REMARK  status: ('A' for Active; 'I' for Inactive)
REMARK    1  A    between atoms: C3_3  and  N1_4 
REMARK       I    between atoms: N1_4  and  C5_6 
REMARK       I    between atoms: C5_6  and  N2_8 
REMARK    2  A    between atoms: N2_8  and  C6_9 
REMARK    3  A    between atoms: N2_8  and  C13_17 
REMARK    4  A    between atoms: C6_9  and  C7_10 
REMARK    5  A    between atoms: C10_13  and  O2_14 
REMARK    6  A    between atoms: C13_17  and  C14_18 
REMARK    7  A    between atoms: C21_25  and  O3_26 
ROOT
HETATM    1  N1  UNL     1      19.329   3.159  49.911  1.00  0.00    -0.315 N 
HETATM    2  C4  UNL     1      18.361   2.928  48.863  1.00  0.00     0.160 C 
HETATM    3  C5  UNL     1      20.692   2.885  49.636  1.00  0.00     0.324 C 
HETATM    4  O1  UNL     1      20.981   2.499  48.478  1.00  0.00    -0.247 OA
HETATM    5  N2  UNL     1      21.983   2.881  50.223  1.00  0.00    -0.325 N 
ENDROOT
BRANCH   5   6
HETATM    6  C6  UNL     1      23.055   2.549  49.309  1.00  0.00     0.166 C 
BRANCH   6   7
HETATM    7  C7  UNL     1      24.200   3.458  49.312  1.00  0.00    -0.040 A 
HETATM    8  C8  UNL     1      23.992   4.798  48.949  1.00  0.00     0.011 A 
HETATM    9  C9  UNL     1      24.984   5.736  48.918  1.00  0.00     0.037 A 
HETATM   10  C10 UNL     1      26.277   5.401  49.250  1.00  0.00     0.065 A 
HETATM   11  C11 UNL     1      26.550   4.117  49.612  1.00  0.00     0.037 A 
HETATM   12  C12 UNL     1      25.516   3.208  49.629  1.00  0.00     0.011 A 
BRANCH  10  13
HETATM   13  O2  UNL     1      27.315   6.320  49.232  1.00  0.00    -0.361 OA
HETATM   14  H13 UNL     1      28.256   6.037  49.475  1.00  0.00     0.217 HD
ENDBRANCH  10  13
ENDBRANCH   6   7
ENDBRANCH   5   6
BRANCH   5  15
HETATM   15  C13 UNL     1      22.414   3.109  51.616  1.00  0.00     0.169 C 
BRANCH  15  16
HETATM   16  C14 UNL     1      22.607   1.832  52.344  1.00  0.00    -0.006 A 
HETATM   17  C15 UNL     1      23.922   1.354  52.393  1.00  0.00     0.018 A 
HETATM   18  C16 UNL     1      24.360   0.200  53.002  1.00  0.00    -0.061 A 
HETATM   19  C17 UNL     1      25.787  -0.210  52.989  1.00  0.00     0.048 C 
HETATM   20  C18 UNL     1      23.420  -0.576  53.635  1.00  0.00     0.016 A 
HETATM   21  C19 UNL     1      22.110  -0.157  53.620  1.00  0.00    -0.028 A 
HETATM   22  C20 UNL     1      21.005  -0.933  54.283  1.00  0.00     0.051 C 
HETATM   23  C21 UNL     1      21.726   1.007  52.995  1.00  0.00     0.079 A 
BRANCH  23  24
HETATM   24  O3  UNL     1      20.410   1.431  52.979  1.00  0.00    -0.360 OA
HETATM   25  H26 UNL     1      20.167   2.135  52.289  1.00  0.00     0.217 HD
ENDBRANCH  23  24
ENDBRANCH  15  16
ENDBRANCH   5  15
BRANCH   1  26
HETATM   26  C3  UNL     1      18.545   3.626  50.994  1.00  0.00     0.090 C 
HETATM   27  C2  UNL     1      17.442   3.330  51.621  1.00  0.00    -0.014 C 
HETATM   28  C1  UNL     1      16.321   2.398  51.665  1.00  0.00     0.037 C 
ENDBRANCH   1  26
TORSDOF 7
ENDMDL
MODEL 8
REMARK VINA RESULT:      -7.2      2.212      2.998
REMARK  7 active torsions:
REMARK  status: ('A' for Active; 'I' for Inactive)
REMARK    1  A    between atoms: C3_3  and  N1_4 
REMARK       I    between atoms: N1_4  and  C5_6 
REMARK       I    between atoms: C5_6  and  N2_8 
REMARK    2  A    between atoms: N2_8  and  C6_9 
REMARK    3  A    between atoms: N2_8  and  C13_17 
REMARK    4  A    between atoms: C6_9  and  C7_10 
REMARK    5  A    between atoms: C10_13  and  O2_14 
REMARK    6  A    between atoms: C13_17  and  C14_18 
REMARK    7  A    between atoms: C21_25  and  O3_26 
ROOT
HETATM    1  N1  UNL     1      21.586   4.570  51.202  1.00  0.00    -0.315 N 
HETATM    2  C4  UNL     1      21.548   5.971  51.557  1.00  0.00     0.160 C 
HETATM    3  C5  UNL     1      22.852   3.952  51.047  1.00  0.00     0.324 C 
HETATM    4  O1  UNL     1      23.867   4.654  51.271  1.00  0.00    -0.247 OA
HETATM    5  N2  UNL     1      23.475   2.726  50.702  1.00  0.00    -0.325 N 
ENDROOT
BRANCH   5   6
HETATM    6  C6  UNL     1      24.918   2.733  50.823  1.00  0.00     0.166 C 
BRANCH   6   7
HETATM    7  C7  UNL     1      25.468   1.963  51.938  1.00  0.00    -0.040 A 
HETATM    8  C8  UNL     1      26.180   0.788  51.654  1.00  0.00     0.011 A 
HETATM    9  C9  UNL     1      26.739  -0.009  52.612  1.00  0.00     0.037 A 
HETATM   10  C10 UNL     1      26.626   0.314  53.945  1.00  0.00     0.065 A 
HETATM   11  C11 UNL     1      25.948   1.442  54.292  1.00  0.00     0.037 A 
HETATM   12  C12 UNL     1      25.403   2.212  53.290  1.00  0.00     0.011 A 
BRANCH  10  13
HETATM   13  O2  UNL     1      27.177  -0.466  54.951  1.00  0.00    -0.361 OA
HETATM   14  H13 UNL     1      28.170  -0.424  55.146  1.00  0.00     0.217 HD
ENDBRANCH  10  13
ENDBRANCH   6   7
ENDBRANCH   5   6
BRANCH   5  15
HETATM   15  C13 UNL     1      22.908   1.461  50.197  1.00  0.00     0.169 C 
BRANCH  15  16
HETATM   16  C14 UNL     1      21.922   0.887  51.144  1.00  0.00    -0.006 A 
HETATM   17  C15 UNL     1      22.440   0.453  52.371  1.00  0.00     0.018 A 
HETATM   18  C16 UNL     1      21.738  -0.113  53.411  1.00  0.00    -0.061 A 
HETATM   19  C17 UNL     1      22.397  -0.538  54.671  1.00  0.00     0.048 C 
HETATM   20  C18 UNL     1      20.385  -0.274  53.245  1.00  0.00     0.016 A 
HETATM   21  C19 UNL     1      19.819   0.134  52.060  1.00  0.00    -0.028 A 
HETATM   22  C20 UNL     1      18.347   0.001  51.778  1.00  0.00     0.051 C 
HETATM   23  C21 UNL     1      20.568   0.694  51.051  1.00  0.00     0.079 A 
BRANCH  23  24
HETATM   24  O3  UNL     1      20.002   1.106  49.859  1.00  0.00    -0.360 OA
HETATM   25  H26 UNL     1      20.457   0.794  49.006  1.00  0.00     0.217 HD
ENDBRANCH  23  24
ENDBRANCH  15  16
ENDBRANCH   5  15
BRANCH   1  26
HETATM   26  C3  UNL     1      20.219   4.212  51.104  1.00  0.00     0.090 C 
HETATM   27  C2  UNL     1      19.170   4.488  50.382  1.00  0.00    -0.014 C 
HETATM   28  C1  UNL     1      18.683   5.284  49.262  1.00  0.00     0.037 C 
ENDBRANCH   1  26
TORSDOF 7
ENDMDL
MODEL 9
REMARK VINA RESULT:      -7.1      2.111      4.792
REMARK  7 active torsions:
REMARK  status: ('A' for Active; 'I' for Inactive)
REMARK    1  A    between atoms: C3_3  and  N1_4 
REMARK       I    between atoms: N1_4  and  C5_6 
REMARK       I    between atoms: C5_6  and  N2_8 
REMARK    2  A    between atoms: N2_8  and  C6_9 
REMARK    3  A    between atoms: N2_8  and  C13_17 
REMARK    4  A    between atoms: C6_9  and  C7_10 
REMARK    5  A    between atoms: C10_13  and  O2_14 
REMARK    6  A    between atoms: C13_17  and  C14_18 
REMARK    7  A    between atoms: C21_25  and  O3_26 
ROOT
HETATM    1  N1  UNL     1      21.673   3.866  48.875  1.00  0.00    -0.315 N 
HETATM    2  C4  UNL     1      20.825   3.255  47.877  1.00  0.00     0.160 C 
HETATM    3  C5  UNL     1      22.407   3.017  49.741  1.00  0.00     0.324 C 
HETATM    4  O1  UNL     1      22.308   1.780  49.556  1.00  0.00    -0.247 OA
HETATM    5  N2  UNL     1      23.299   3.028  50.843  1.00  0.00    -0.325 N 
ENDROOT
BRANCH   5   6
HETATM    6  C6  UNL     1      23.782   1.721  51.236  1.00  0.00     0.166 C 
BRANCH   6   7
HETATM    7  C7  UNL     1      25.039   1.703  51.982  1.00  0.00    -0.040 A 
HETATM    8  C8  UNL     1      24.992   1.862  53.376  1.00  0.00     0.011 A 
HETATM    9  C9  UNL     1      26.099   1.861  54.176  1.00  0.00     0.037 A 
HETATM   10  C10 UNL     1      27.354   1.697  53.635  1.00  0.00     0.065 A 
HETATM   11  C11 UNL     1      27.473   1.537  52.289  1.00  0.00     0.037 A 
HETATM   12  C12 UNL     1      26.327   1.546  51.525  1.00  0.00     0.011 A 
BRANCH  10  13
HETATM   13  O2  UNL     1      28.505   1.690  54.409  1.00  0.00    -0.361 OA
HETATM   14  H13 UNL     1      28.575   2.279  55.229  1.00  0.00     0.217 HD
ENDBRANCH  10  13
ENDBRANCH   6   7
ENDBRANCH   5   6
BRANCH   5  15
HETATM   15  C13 UNL     1      23.782   4.138  51.687  1.00  0.00     0.169 C 
BRANCH  15  16
HETATM   16  C14 UNL     1      24.503   5.158  50.888  1.00  0.00    -0.006 A 
HETATM   17  C15 UNL     1      25.600   4.690  50.155  1.00  0.00     0.018 A 
HETATM   18  C16 UNL     1      26.428   5.431  49.342  1.00  0.00    -0.061 A 
HETATM   19  C17 UNL     1      27.568   4.824  48.610  1.00  0.00     0.048 C 
HETATM   20  C18 UNL     1      26.162   6.773  49.226  1.00  0.00     0.016 A 
HETATM   21  C19 UNL     1      25.096   7.291  49.924  1.00  0.00    -0.028 A 
HETATM   22  C20 UNL     1      24.720   8.747  49.865  1.00  0.00     0.051 C 
HETATM   23  C21 UNL     1      24.300   6.504  50.723  1.00  0.00     0.079 A 
BRANCH  23  24
HETATM   24  O3  UNL     1      23.227   7.021  51.426  1.00  0.00    -0.360 OA
HETATM   25  H26 UNL     1      23.190   8.032  51.524  1.00  0.00     0.217 HD
ENDBRANCH  23  24
ENDBRANCH  15  16
ENDBRANCH   5  15
BRANCH   1  26
HETATM   26  C3  UNL     1      21.489   5.255  48.667  1.00  0.00     0.090 C 
HETATM   27  C2  UNL     1      22.007   6.233  47.979  1.00  0.00    -0.014 C 
HETATM   28  C1  UNL     1      23.047   6.580  47.018  1.00  0.00     0.037 C 
ENDBRANCH   1  26
TORSDOF 7
ENDMDL
