MODEL 1
REMARK VINA RESULT:      -9.5      0.000      0.000
REMARK  1 active torsions:
REMARK  status: ('A' for Active; 'I' for Inactive)
REMARK    1  A    between atoms: O1_2  and  C2_3 
ROOT
HETATM    1  C2  UNL     1      21.677   0.044  52.532  1.00  0.00     0.091 C 
HETATM    2  C3  UNL     1      20.838   1.038  52.129  1.00  0.00     0.043 C 
HETATM    3  C4  UNL     1      20.351   2.102  53.113  1.00  0.00     0.065 C 
HETATM    4  C5  UNL     1      20.595   3.464  52.537  1.00  0.00    -0.003 C 
HETATM    5  C6  UNL     1      19.393   3.675  51.593  1.00  0.00     0.025 C 
HETATM    6  C7  UNL     1      19.003   2.280  51.020  1.00  0.00     0.125 C 
HETATM    7  N1  UNL     1      20.225   1.495  50.894  1.00  0.00    -0.360 N 
HETATM    8  C8  UNL     1      20.733   1.326  49.494  1.00  0.00     0.292 C 
HETATM    9  O2  UNL     1      21.028   2.573  49.142  1.00  0.00    -0.372 OA
HETATM   10  C9  UNL     1      21.682   3.056  48.116  1.00  0.00     0.171 C 
HETATM   11  C10 UNL     1      23.177   2.697  48.098  1.00  0.00     0.041 C 
HETATM   12  C11 UNL     1      23.854   3.112  49.368  1.00  0.00    -0.008 C 
HETATM   13  C12 UNL     1      23.842   4.602  49.555  1.00  0.00     0.021 C 
HETATM   14  C13 UNL     1      23.369   2.337  50.481  1.00  0.00    -0.008 C 
HETATM   15  C14 UNL     1      22.916   2.749  51.663  1.00  0.00    -0.054 C 
HETATM   16  C15 UNL     1      21.904   3.789  52.008  1.00  0.00     0.043 C 
HETATM   17  C16 UNL     1      23.743   1.801  52.500  1.00  0.00    -0.042 C 
HETATM   18  C17 UNL     1      23.125   0.549  52.649  1.00  0.00     0.047 C 
HETATM   19  C18 UNL     1      24.861   1.568  53.245  1.00  0.00     0.060 A 
HETATM   20  C19 UNL     1      26.205   2.151  53.031  1.00  0.00     0.045 A 
HETATM   21  C20 UNL     1      27.235   2.183  54.028  1.00  0.00    -0.008 A 
HETATM   22  C21 UNL     1      27.620   0.768  53.925  1.00  0.00     0.017 A 
HETATM   23  C22 UNL     1      26.807  -0.115  52.884  1.00  0.00     0.038 A 
HETATM   24  C23 UNL     1      26.947  -1.374  52.479  1.00  0.00     0.096 C 
HETATM   25  N2  UNL     1      27.065  -2.415  52.129  1.00  0.00    -0.192 NA
HETATM   26  C24 UNL     1      26.071   0.853  52.551  1.00  0.00     0.062 A 
HETATM   27  C25 UNL     1      26.038   2.152  51.658  1.00  0.00     0.013 A 
HETATM   28  N3  UNL     1      26.004   2.836  50.501  1.00  0.00    -0.393 N 
HETATM   29  C26 UNL     1      25.322   2.737  49.278  1.00  0.00     0.132 C 
HETATM   30  H27 UNL     1      26.687   3.616  50.645  1.00  0.00     0.159 HD
ENDROOT
BRANCH   1  31
HETATM   31  O1  UNL     1      21.486  -1.251  52.837  1.00  0.00    -0.354 OA
HETATM   32  C1  UNL     1      21.328  -1.676  54.196  1.00  0.00     0.210 C 
ENDBRANCH   1  31
TORSDOF 1
ENDMDL
MODEL 2
REMARK VINA RESULT:      -8.7      8.628     10.887
REMARK  1 active torsions:
REMARK  status: ('A' for Active; 'I' for Inactive)
REMARK    1  A    between atoms: O1_2  and  C2_3 
ROOT
HETATM    1  C2  UNL     1      29.314   6.322  48.054  1.00  0.00     0.091 C 
HETATM    2  C3  UNL     1      29.202   7.669  47.885  1.00  0.00     0.043 C 
HETATM    3  C4  UNL     1      29.574   8.634  49.010  1.00  0.00     0.065 C 
HETATM    4  C5  UNL     1      30.519   9.672  48.485  1.00  0.00    -0.003 C 
HETATM    5  C6  UNL     1      29.586  10.698  47.807  1.00  0.00     0.025 C 
HETATM    6  C7  UNL     1      28.371   9.910  47.234  1.00  0.00     0.125 C 
HETATM    7  N1  UNL     1      28.847   8.595  46.824  1.00  0.00    -0.360 N 
HETATM    8  C8  UNL     1      28.981   8.399  45.344  1.00  0.00     0.292 C 
HETATM    9  O2  UNL     1      29.924   9.278  45.021  1.00  0.00    -0.372 OA
HETATM   10  C9  UNL     1      30.610   9.453  43.920  1.00  0.00     0.171 C 
HETATM   11  C10 UNL     1      31.572   8.301  43.588  1.00  0.00     0.041 C 
HETATM   12  C11 UNL     1      32.506   8.025  44.726  1.00  0.00    -0.008 C 
HETATM   13  C12 UNL     1      33.416   9.186  45.006  1.00  0.00     0.021 C 
HETATM   14  C13 UNL     1      31.788   7.504  45.862  1.00  0.00    -0.008 C 
HETATM   15  C14 UNL     1      31.819   7.898  47.133  1.00  0.00    -0.054 C 
HETATM   16  C15 UNL     1      31.687   9.257  47.733  1.00  0.00     0.043 C 
HETATM   17  C16 UNL     1      31.999   6.523  47.730  1.00  0.00    -0.042 C 
HETATM   18  C17 UNL     1      30.775   5.861  47.918  1.00  0.00     0.047 C 
HETATM   19  C18 UNL     1      32.829   5.563  48.228  1.00  0.00     0.060 A 
HETATM   20  C19 UNL     1      34.217   5.279  47.794  1.00  0.00     0.045 A 
HETATM   21  C20 UNL     1      35.167   4.539  48.572  1.00  0.00    -0.008 A 
HETATM   22  C21 UNL     1      34.606   3.205  48.306  1.00  0.00     0.017 A 
HETATM   23  C22 UNL     1      33.309   3.150  47.389  1.00  0.00     0.038 A 
HETATM   24  C23 UNL     1      32.614   2.134  46.886  1.00  0.00     0.096 C 
HETATM   25  N2  UNL     1      32.039   1.296  46.455  1.00  0.00    -0.192 NA
HETATM   26  C24 UNL     1      33.272   4.405  47.269  1.00  0.00     0.062 A 
HETATM   27  C25 UNL     1      33.923   5.607  46.483  1.00  0.00     0.013 A 
HETATM   28  N3  UNL     1      34.171   6.364  45.400  1.00  0.00    -0.393 N 
HETATM   29  C26 UNL     1      33.429   6.887  44.329  1.00  0.00     0.132 C 
HETATM   30  H27 UNL     1      35.197   6.563  45.457  1.00  0.00     0.159 HD
ENDROOT
BRANCH   1  31
HETATM   31  O1  UNL     1      28.418   5.352  48.307  1.00  0.00    -0.354 OA
HETATM   32  C1  UNL     1      27.068   5.667  48.665  1.00  0.00     0.210 C 
ENDBRANCH   1  31
TORSDOF 1
ENDMDL
MODEL 3
REMARK VINA RESULT:      -8.2      3.183      5.469
REMARK  1 active torsions:
REMARK  status: ('A' for Active; 'I' for Inactive)
REMARK    1  A    between atoms: O1_2  and  C2_3 
ROOT
HETATM    1  C2  UNL     1      25.289   3.177  50.726  1.00  0.00     0.091 C 
HETATM    2  C3  UNL     1      23.984   2.856  50.947  1.00  0.00     0.043 C 
HETATM    3  C4  UNL     1      23.288   3.252  52.248  1.00  0.00     0.065 C 
HETATM    4  C5  UNL     1      22.003   3.956  51.932  1.00  0.00    -0.003 C 
HETATM    5  C6  UNL     1      21.016   2.800  51.664  1.00  0.00     0.025 C 
HETATM    6  C7  UNL     1      21.829   1.635  51.027  1.00  0.00     0.125 C 
HETATM    7  N1  UNL     1      22.894   2.224  50.224  1.00  0.00    -0.360 N 
HETATM    8  C8  UNL     1      22.681   2.165  48.741  1.00  0.00     0.292 C 
HETATM    9  O2  UNL     1      21.599   2.920  48.575  1.00  0.00    -0.372 OA
HETATM   10  C9  UNL     1      21.034   3.405  47.499  1.00  0.00     0.171 C 
HETATM   11  C10 UNL     1      21.880   4.459  46.765  1.00  0.00     0.041 C 
HETATM   12  C11 UNL     1      22.270   5.579  47.680  1.00  0.00    -0.008 C 
HETATM   13  C12 UNL     1      21.079   6.350  48.171  1.00  0.00     0.021 C 
HETATM   14  C13 UNL     1      23.179   5.114  48.697  1.00  0.00    -0.008 C 
HETATM   15  C14 UNL     1      23.122   5.276  50.017  1.00  0.00    -0.054 C 
HETATM   16  C15 UNL     1      22.004   5.046  50.978  1.00  0.00     0.043 C 
HETATM   17  C16 UNL     1      24.552   5.732  50.192  1.00  0.00    -0.042 C 
HETATM   18  C17 UNL     1      25.440   4.652  50.318  1.00  0.00     0.047 C 
HETATM   19  C18 UNL     1      25.448   6.751  50.318  1.00  0.00     0.060 A 
HETATM   20  C19 UNL     1      25.368   8.085  49.680  1.00  0.00     0.045 A 
HETATM   21  C20 UNL     1      26.105   9.233  50.121  1.00  0.00    -0.008 A 
HETATM   22  C21 UNL     1      27.404   8.830  49.560  1.00  0.00     0.017 A 
HETATM   23  C22 UNL     1      27.447   7.432  48.804  1.00  0.00     0.038 A 
HETATM   24  C23 UNL     1      28.406   6.818  48.117  1.00  0.00     0.096 C 
HETATM   25  N2  UNL     1      29.193   6.309  47.534  1.00  0.00    -0.192 NA
HETATM   26  C24 UNL     1      26.229   7.204  49.036  1.00  0.00     0.062 A 
HETATM   27  C25 UNL     1      24.773   7.560  48.547  1.00  0.00     0.013 A 
HETATM   28  N3  UNL     1      23.734   7.539  47.694  1.00  0.00    -0.393 N 
HETATM   29  C26 UNL     1      23.092   6.582  46.891  1.00  0.00     0.132 C 
HETATM   30  H27 UNL     1      23.382   8.524  47.697  1.00  0.00     0.159 HD
ENDROOT
BRANCH   1  31
HETATM   31  O1  UNL     1      26.432   2.472  50.795  1.00  0.00    -0.354 OA
HETATM   32  C1  UNL     1      26.981   2.076  52.058  1.00  0.00     0.210 C 
ENDBRANCH   1  31
TORSDOF 1
ENDMDL
MODEL 4
REMARK VINA RESULT:      -8.1      3.351      6.438
REMARK  1 active torsions:
REMARK  status: ('A' for Active; 'I' for Inactive)
REMARK    1  A    between atoms: O1_2  and  C2_3 
ROOT
HETATM    1  C2  UNL     1      21.697   6.923  47.654  1.00  0.00     0.091 C 
HETATM    2  C3  UNL     1      20.861   5.848  47.644  1.00  0.00     0.043 C 
HETATM    3  C4  UNL     1      20.913   4.823  46.513  1.00  0.00     0.065 C 
HETATM    4  C5  UNL     1      21.027   3.445  47.092  1.00  0.00    -0.003 C 
HETATM    5  C6  UNL     1      19.570   3.087  47.454  1.00  0.00     0.025 C 
HETATM    6  C7  UNL     1      18.856   4.408  47.865  1.00  0.00     0.125 C 
HETATM    7  N1  UNL     1      19.846   5.267  48.505  1.00  0.00    -0.360 N 
HETATM    8  C8  UNL     1      19.726   5.375  49.996  1.00  0.00     0.292 C 
HETATM    9  O2  UNL     1      19.967   4.130  50.395  1.00  0.00    -0.372 OA
HETATM   10  C9  UNL     1      20.190   3.625  51.582  1.00  0.00     0.171 C 
HETATM   11  C10 UNL     1      21.511   4.086  52.222  1.00  0.00     0.041 C 
HETATM   12  C11 UNL     1      22.678   3.806  51.326  1.00  0.00    -0.008 C 
HETATM   13  C12 UNL     1      22.879   2.336  51.100  1.00  0.00     0.021 C 
HETATM   14  C13 UNL     1      22.616   4.620  50.138  1.00  0.00    -0.008 C 
HETATM   15  C14 UNL     1      22.720   4.258  48.862  1.00  0.00    -0.054 C 
HETATM   16  C15 UNL     1      22.034   3.176  48.098  1.00  0.00     0.043 C 
HETATM   17  C16 UNL     1      23.724   5.317  48.469  1.00  0.00    -0.042 C 
HETATM   18  C17 UNL     1      23.108   6.530  48.122  1.00  0.00     0.047 C 
HETATM   19  C18 UNL     1      25.021   5.677  48.253  1.00  0.00     0.060 A 
HETATM   20  C19 UNL     1      26.212   5.177  48.979  1.00  0.00     0.045 A 
HETATM   21  C20 UNL     1      27.555   5.284  48.489  1.00  0.00    -0.008 A 
HETATM   22  C21 UNL     1      27.734   6.713  48.788  1.00  0.00     0.017 A 
HETATM   23  C22 UNL     1      26.492   7.464  49.435  1.00  0.00     0.038 A 
HETATM   24  C23 UNL     1      26.341   8.699  49.904  1.00  0.00     0.096 C 
HETATM   25  N2  UNL     1      26.211   9.719  50.307  1.00  0.00    -0.192 NA
HETATM   26  C24 UNL     1      25.776   6.427  49.405  1.00  0.00     0.062 A 
HETATM   27  C25 UNL     1      25.504   5.071  50.162  1.00  0.00     0.013 A 
HETATM   28  N3  UNL     1      25.068   4.309  51.181  1.00  0.00    -0.393 N 
HETATM   29  C26 UNL     1      23.943   4.276  52.021  1.00  0.00     0.132 C 
HETATM   30  H27 UNL     1      25.819   3.590  51.302  1.00  0.00     0.159 HD
ENDROOT
BRANCH   1  31
HETATM   31  O1  UNL     1      21.527   8.220  47.342  1.00  0.00    -0.354 OA
HETATM   32  C1  UNL     1      20.237   8.732  46.989  1.00  0.00     0.210 C 
ENDBRANCH   1  31
TORSDOF 1
ENDMDL
MODEL 5
REMARK VINA RESULT:      -8.1      9.117     12.579
REMARK  1 active torsions:
REMARK  status: ('A' for Active; 'I' for Inactive)
REMARK    1  A    between atoms: O1_2  and  C2_3 
ROOT
HETATM    1  C2  UNL     1      30.486   5.554  47.962  1.00  0.00     0.091 C 
HETATM    2  C3  UNL     1      31.662   4.976  47.590  1.00  0.00     0.043 C 
HETATM    3  C4  UNL     1      31.779   4.209  46.274  1.00  0.00     0.065 C 
HETATM    4  C5  UNL     1      32.959   4.717  45.503  1.00  0.00    -0.003 C 
HETATM    5  C6  UNL     1      34.151   3.969  46.136  1.00  0.00     0.025 C 
HETATM    6  C7  UNL     1      33.818   3.755  47.642  1.00  0.00     0.125 C 
HETATM    7  N1  UNL     1      33.025   4.895  48.087  1.00  0.00    -0.360 N 
HETATM    8  C8  UNL     1      33.755   5.883  48.947  1.00  0.00     0.292 C 
HETATM    9  O2  UNL     1      34.687   6.349  48.121  1.00  0.00    -0.372 OA
HETATM   10  C9  UNL     1      35.509   7.362  48.222  1.00  0.00     0.171 C 
HETATM   11  C10 UNL     1      34.818   8.736  48.216  1.00  0.00     0.041 C 
HETATM   12  C11 UNL     1      33.952   8.906  47.006  1.00  0.00    -0.008 C 
HETATM   13  C12 UNL     1      34.750   8.897  45.734  1.00  0.00     0.021 C 
HETATM   14  C13 UNL     1      32.831   8.001  47.048  1.00  0.00    -0.008 C 
HETATM   15  C14 UNL     1      32.390   7.159  46.117  1.00  0.00    -0.054 C 
HETATM   16  C15 UNL     1      33.117   6.143  45.301  1.00  0.00     0.043 C 
HETATM   17  C16 UNL     1      30.937   7.564  46.198  1.00  0.00    -0.042 C 
HETATM   18  C17 UNL     1      30.251   6.875  47.210  1.00  0.00     0.047 C 
HETATM   19  C18 UNL     1      29.901   8.307  45.717  1.00  0.00     0.060 A 
HETATM   20  C19 UNL     1      29.983   9.661  45.121  1.00  0.00     0.045 A 
HETATM   21  C20 UNL     1      28.960  10.241  44.300  1.00  0.00    -0.008 A 
HETATM   22  C21 UNL     1      28.029  10.568  45.391  1.00  0.00     0.017 A 
HETATM   23  C22 UNL     1      28.484  10.162  46.859  1.00  0.00     0.038 A 
HETATM   24  C23 UNL     1      27.944  10.382  48.054  1.00  0.00     0.096 C 
HETATM   25  N2  UNL     1      27.508  10.572  49.050  1.00  0.00    -0.192 NA
HETATM   26  C24 UNL     1      29.561   9.653  46.445  1.00  0.00     0.062 A 
HETATM   27  C25 UNL     1      31.017  10.021  45.966  1.00  0.00     0.013 A 
HETATM   28  N3  UNL     1      32.279  10.458  46.123  1.00  0.00    -0.393 N 
HETATM   29  C26 UNL     1      33.310  10.280  47.060  1.00  0.00     0.132 C 
HETATM   30  H27 UNL     1      32.442  11.073  45.293  1.00  0.00     0.159 HD
ENDROOT
BRANCH   1  31
HETATM   31  O1  UNL     1      29.524   5.199  48.831  1.00  0.00    -0.354 OA
HETATM   32  C1  UNL     1      28.143   5.216  48.454  1.00  0.00     0.210 C 
ENDBRANCH   1  31
TORSDOF 1
ENDMDL
MODEL 6
REMARK VINA RESULT:      -7.9      2.952      7.087
REMARK  1 active torsions:
REMARK  status: ('A' for Active; 'I' for Inactive)
REMARK    1  A    between atoms: O1_2  and  C2_3 
ROOT
HETATM    1  C2  UNL     1      21.234   2.468  52.100  1.00  0.00     0.091 C 
HETATM    2  C3  UNL     1      22.452   2.726  51.548  1.00  0.00     0.043 C 
HETATM    3  C4  UNL     1      22.977   1.891  50.381  1.00  0.00     0.065 C 
HETATM    4  C5  UNL     1      23.417   2.800  49.274  1.00  0.00    -0.003 C 
HETATM    5  C6  UNL     1      24.834   3.232  49.705  1.00  0.00     0.025 C 
HETATM    6  C7  UNL     1      24.848   3.290  51.260  1.00  0.00     0.125 C 
HETATM    7  N1  UNL     1      23.520   3.699  51.701  1.00  0.00    -0.360 N 
HETATM    8  C8  UNL     1      23.418   5.113  52.190  1.00  0.00     0.292 C 
HETATM    9  O2  UNL     1      23.705   5.816  51.099  1.00  0.00    -0.372 OA
HETATM   10  C9  UNL     1      23.597   7.093  50.834  1.00  0.00     0.171 C 
HETATM   11  C10 UNL     1      22.148   7.605  50.782  1.00  0.00     0.041 C 
HETATM   12  C11 UNL     1      21.325   6.816  49.809  1.00  0.00    -0.008 C 
HETATM   13  C12 UNL     1      21.815   6.972  48.398  1.00  0.00     0.021 C 
HETATM   14  C13 UNL     1      21.153   5.461  50.267  1.00  0.00    -0.008 C 
HETATM   15  C14 UNL     1      21.357   4.318  49.616  1.00  0.00    -0.054 C 
HETATM   16  C15 UNL     1      22.526   3.849  48.818  1.00  0.00     0.043 C 
HETATM   17  C16 UNL     1      20.040   3.677  49.986  1.00  0.00    -0.042 C 
HETATM   18  C17 UNL     1      20.097   3.031  51.231  1.00  0.00     0.047 C 
HETATM   19  C18 UNL     1      18.748   3.386  49.663  1.00  0.00     0.060 A 
HETATM   20  C19 UNL     1      17.826   4.222  48.860  1.00  0.00     0.045 A 
HETATM   21  C20 UNL     1      16.633   3.730  48.235  1.00  0.00    -0.008 A 
HETATM   22  C21 UNL     1      15.815   3.660  49.455  1.00  0.00     0.017 A 
HETATM   23  C22 UNL     1      16.525   4.087  50.811  1.00  0.00     0.038 A 
HETATM   24  C23 UNL     1      16.068   4.227  52.052  1.00  0.00     0.096 C 
HETATM   25  N2  UNL     1      15.693   4.357  53.082  1.00  0.00    -0.192 NA
HETATM   26  C24 UNL     1      17.621   4.315  50.232  1.00  0.00     0.062 A 
HETATM   27  C25 UNL     1      18.376   5.390  49.359  1.00  0.00     0.013 A 
HETATM   28  N3  UNL     1      18.988   6.565  49.131  1.00  0.00    -0.393 N 
HETATM   29  C26 UNL     1      19.915   7.378  49.802  1.00  0.00     0.132 C 
HETATM   30  H27 UNL     1      18.620   6.869  48.200  1.00  0.00     0.159 HD
ENDROOT
BRANCH   1  31
HETATM   31  O1  UNL     1      20.852   1.837  53.224  1.00  0.00    -0.354 OA
HETATM   32  C1  UNL     1      21.354   0.535  53.548  1.00  0.00     0.210 C 
ENDBRANCH   1  31
TORSDOF 1
ENDMDL
MODEL 7
REMARK VINA RESULT:      -7.8      3.108      7.196
REMARK  1 active torsions:
REMARK  status: ('A' for Active; 'I' for Inactive)
REMARK    1  A    between atoms: O1_2  and  C2_3 
ROOT
HETATM    1  C2  UNL     1      20.310   1.158  52.637  1.00  0.00     0.091 C 
HETATM    2  C3  UNL     1      21.297   1.746  51.904  1.00  0.00     0.043 C 
HETATM    3  C4  UNL     1      22.213   0.912  51.009  1.00  0.00     0.065 C 
HETATM    4  C5  UNL     1      22.238   1.502  49.632  1.00  0.00    -0.003 C 
HETATM    5  C6  UNL     1      23.266   2.647  49.751  1.00  0.00     0.025 C 
HETATM    6  C7  UNL     1      23.166   3.211  51.198  1.00  0.00     0.125 C 
HETATM    7  N1  UNL     1      21.778   3.088  51.629  1.00  0.00    -0.360 N 
HETATM    8  C8  UNL     1      21.003   4.371  51.656  1.00  0.00     0.292 C 
HETATM    9  O2  UNL     1      20.989   4.726  50.375  1.00  0.00    -0.372 OA
HETATM   10  C9  UNL     1      20.314   5.648  49.736  1.00  0.00     0.171 C 
HETATM   11  C10 UNL     1      18.799   5.393  49.681  1.00  0.00     0.041 C 
HETATM   12  C11 UNL     1      18.492   4.047  49.100  1.00  0.00    -0.008 C 
HETATM   13  C12 UNL     1      18.929   3.936  47.668  1.00  0.00     0.021 C 
HETATM   14  C13 UNL     1      18.946   2.997  49.976  1.00  0.00    -0.008 C 
HETATM   15  C14 UNL     1      19.693   1.931  49.699  1.00  0.00    -0.054 C 
HETATM   16  C15 UNL     1      20.988   1.814  48.968  1.00  0.00     0.043 C 
HETATM   17  C16 UNL     1      18.808   0.921  50.392  1.00  0.00    -0.042 C 
HETATM   18  C17 UNL     1      19.091   0.820  51.763  1.00  0.00     0.047 C 
HETATM   19  C18 UNL     1      17.820  -0.015  50.317  1.00  0.00     0.060 A 
HETATM   20  C19 UNL     1      16.660  -0.007  49.395  1.00  0.00     0.045 A 
HETATM   21  C20 UNL     1      15.869  -1.163  49.088  1.00  0.00    -0.008 A 
HETATM   22  C21 UNL     1      15.113  -1.195  50.349  1.00  0.00     0.017 A 
HETATM   23  C22 UNL     1      15.467  -0.073  51.418  1.00  0.00     0.038 A 
HETATM   24  C23 UNL     1      14.931   0.241  52.594  1.00  0.00     0.096 C 
HETATM   25  N2  UNL     1      14.483   0.515  53.565  1.00  0.00    -0.192 NA
HETATM   26  C24 UNL     1      16.361   0.426  50.682  1.00  0.00     0.062 A 
HETATM   27  C25 UNL     1      16.575   1.373  49.440  1.00  0.00     0.013 A 
HETATM   28  N3  UNL     1      16.581   2.550  48.790  1.00  0.00    -0.393 N 
HETATM   29  C26 UNL     1      16.985   3.866  49.068  1.00  0.00     0.132 C 
HETATM   30  H27 UNL     1      16.165   2.329  47.856  1.00  0.00     0.159 HD
ENDROOT
BRANCH   1  31
HETATM   31  O1  UNL     1      20.205   0.829  53.936  1.00  0.00    -0.354 OA
HETATM   32  C1  UNL     1      21.196   0.016  54.576  1.00  0.00     0.210 C 
ENDBRANCH   1  31
TORSDOF 1
ENDMDL
MODEL 8
REMARK VINA RESULT:      -7.7      4.051      7.695
REMARK  1 active torsions:
REMARK  status: ('A' for Active; 'I' for Inactive)
REMARK    1  A    between atoms: O1_2  and  C2_3 
ROOT
HETATM    1  C2  UNL     1      24.271   6.414  50.860  1.00  0.00     0.091 C 
HETATM    2  C3  UNL     1      24.021   5.120  51.205  1.00  0.00     0.043 C 
HETATM    3  C4  UNL     1      23.406   4.775  52.561  1.00  0.00     0.065 C 
HETATM    4  C5  UNL     1      22.219   3.883  52.358  1.00  0.00    -0.003 C 
HETATM    5  C6  UNL     1      22.846   2.482  52.197  1.00  0.00     0.025 C 
HETATM    6  C7  UNL     1      24.226   2.669  51.501  1.00  0.00     0.125 C 
HETATM    7  N1  UNL     1      24.116   3.806  50.595  1.00  0.00    -0.360 N 
HETATM    8  C8  UNL     1      24.039   3.455  49.139  1.00  0.00     0.292 C 
HETATM    9  O2  UNL     1      22.896   2.780  49.067  1.00  0.00    -0.372 OA
HETATM   10  C9  UNL     1      22.188   2.377  48.042  1.00  0.00     0.171 C 
HETATM   11  C10 UNL     1      21.567   3.518  47.219  1.00  0.00     0.041 C 
HETATM   12  C11 UNL     1      20.740   4.423  48.079  1.00  0.00    -0.008 C 
HETATM   13  C12 UNL     1      19.554   3.716  48.669  1.00  0.00     0.021 C 
HETATM   14  C13 UNL     1      21.571   5.140  49.012  1.00  0.00    -0.008 C 
HETATM   15  C14 UNL     1      21.437   5.275  50.330  1.00  0.00    -0.054 C 
HETATM   16  C15 UNL     1      21.203   4.256  51.394  1.00  0.00     0.043 C 
HETATM   17  C16 UNL     1      21.628   6.774  50.365  1.00  0.00    -0.042 C 
HETATM   18  C17 UNL     1      22.984   7.134  50.420  1.00  0.00     0.047 C 
HETATM   19  C18 UNL     1      21.084   8.023  50.393  1.00  0.00     0.060 A 
HETATM   20  C19 UNL     1      19.821   8.453  49.749  1.00  0.00     0.045 A 
HETATM   21  C20 UNL     1      19.102   9.642  50.105  1.00  0.00    -0.008 A 
HETATM   22  C21 UNL     1      19.996  10.594  49.430  1.00  0.00     0.017 A 
HETATM   23  C22 UNL     1      21.262   9.978  48.690  1.00  0.00     0.038 A 
HETATM   24  C23 UNL     1      22.202  10.524  47.925  1.00  0.00     0.096 C 
HETATM   25  N2  UNL     1      22.978  10.968  47.278  1.00  0.00    -0.192 NA
HETATM   26  C24 UNL     1      20.964   8.803  49.039  1.00  0.00     0.062 A 
HETATM   27  C25 UNL     1      20.017   7.594  48.683  1.00  0.00     0.013 A 
HETATM   28  N3  UNL     1      19.576   6.570  47.931  1.00  0.00    -0.393 N 
HETATM   29  C26 UNL     1      20.152   5.516  47.204  1.00  0.00     0.132 C 
HETATM   30  H27 UNL     1      18.534   6.666  47.954  1.00  0.00     0.159 HD
ENDROOT
BRANCH   1  31
HETATM   31  O1  UNL     1      25.392   7.155  50.831  1.00  0.00    -0.354 OA
HETATM   32  C1  UNL     1      26.177   7.263  49.637  1.00  0.00     0.210 C 
ENDBRANCH   1  31
TORSDOF 1
ENDMDL
MODEL 9
REMARK VINA RESULT:      -7.7      4.923      7.053
REMARK  1 active torsions:
REMARK  status: ('A' for Active; 'I' for Inactive)
REMARK    1  A    between atoms: O1_2  and  C2_3 
ROOT
HETATM    1  C2  UNL     1      24.881   5.368  49.916  1.00  0.00     0.091 C 
HETATM    2  C3  UNL     1      23.633   5.898  49.779  1.00  0.00     0.043 C 
HETATM    3  C4  UNL     1      23.086   6.890  50.803  1.00  0.00     0.065 C 
HETATM    4  C5  UNL     1      22.573   8.107  50.094  1.00  0.00    -0.003 C 
HETATM    5  C6  UNL     1      21.163   7.686  49.631  1.00  0.00     0.025 C 
HETATM    6  C7  UNL     1      21.212   6.161  49.324  1.00  0.00     0.125 C 
HETATM    7  N1  UNL     1      22.545   5.853  48.819  1.00  0.00    -0.360 N 
HETATM    8  C8  UNL     1      22.625   5.602  47.342  1.00  0.00     0.292 C 
HETATM    9  O2  UNL     1      22.271   6.778  46.832  1.00  0.00    -0.372 OA
HETATM   10  C9  UNL     1      22.329   7.248  45.611  1.00  0.00     0.171 C 
HETATM   11  C10 UNL     1      23.759   7.448  45.082  1.00  0.00     0.041 C 
HETATM   12  C11 UNL     1      24.563   8.319  45.997  1.00  0.00    -0.008 C 
HETATM   13  C12 UNL     1      24.011   9.712  46.083  1.00  0.00     0.021 C 
HETATM   14  C13 UNL     1      24.795   7.658  47.257  1.00  0.00    -0.008 C 
HETATM   15  C14 UNL     1      24.599   8.108  48.494  1.00  0.00    -0.054 C 
HETATM   16  C15 UNL     1      23.412   8.766  49.113  1.00  0.00     0.043 C 
HETATM   17  C16 UNL     1      25.949   7.701  49.037  1.00  0.00    -0.042 C 
HETATM   18  C17 UNL     1      25.964   6.367  49.475  1.00  0.00     0.047 C 
HETATM   19  C18 UNL     1      27.234   8.033  49.346  1.00  0.00     0.060 A 
HETATM   20  C19 UNL     1      28.096   9.001  48.629  1.00  0.00     0.045 A 
HETATM   21  C20 UNL     1      29.276   9.594  49.188  1.00  0.00    -0.008 A 
HETATM   22  C21 UNL     1      30.146   8.417  49.042  1.00  0.00     0.017 A 
HETATM   23  C22 UNL     1      29.481   7.115  48.418  1.00  0.00     0.038 A 
HETATM   24  C23 UNL     1      29.985   5.935  48.069  1.00  0.00     0.096 C 
HETATM   25  N2  UNL     1      30.399   4.958  47.766  1.00  0.00    -0.192 NA
HETATM   26  C24 UNL     1      28.355   7.672  48.312  1.00  0.00     0.062 A 
HETATM   27  C25 UNL     1      27.533   8.671  47.410  1.00  0.00     0.013 A 
HETATM   28  N3  UNL     1      26.876   9.055  46.301  1.00  0.00    -0.393 N 
HETATM   29  C26 UNL     1      25.954   8.481  45.412  1.00  0.00     0.132 C 
HETATM   30  H27 UNL     1      27.196  10.039  46.143  1.00  0.00     0.159 HD
ENDROOT
BRANCH   1  31
HETATM   31  O1  UNL     1      25.329   4.176  50.349  1.00  0.00    -0.354 OA
HETATM   32  C1  UNL     1      26.505   3.581  49.788  1.00  0.00     0.210 C 
ENDBRANCH   1  31
TORSDOF 1
ENDMDL
