MODEL 1
REMARK VINA RESULT:      -9.2      0.000      0.000
REMARK  1 active torsions:
REMARK  status: ('A' for Active; 'I' for Inactive)
REMARK    1  A    between atoms: C6_7  and  C7_8 
ROOT
HETATM    1  C1  UNL     1      19.181   5.144  47.584  1.00  0.00     0.050 C 
HETATM    2  C2  UNL     1      20.178   4.174  48.086  1.00  0.00    -0.031 C 
HETATM    3  C3  UNL     1      20.553   3.220  47.271  1.00  0.00     0.091 C 
HETATM    4  N1  UNL     1      21.466   2.473  47.724  1.00  0.00    -0.258 NA
HETATM    5  C4  UNL     1      22.544   2.909  48.507  1.00  0.00     0.119 C 
HETATM    6  C5  UNL     1      23.719   3.474  48.728  1.00  0.00     0.051 C 
HETATM    7  C6  UNL     1      24.627   3.782  49.815  1.00  0.00     0.066 C 
HETATM    8  N3  UNL     1      23.956   3.329  50.767  1.00  0.00    -0.259 NA
HETATM    9  C12 UNL     1      24.366   3.358  52.137  1.00  0.00     0.419 C 
HETATM   10  N4  UNL     1      23.332   2.831  53.036  1.00  0.00     0.113 N 
HETATM   11  C13 UNL     1      23.098   1.439  52.622  1.00  0.00     0.275 A 
HETATM   12  C14 UNL     1      24.300   0.589  52.938  1.00  0.00     0.069 A 
HETATM   13  C15 UNL     1      23.900  -0.537  53.803  1.00  0.00    -0.024 A 
HETATM   14  C16 UNL     1      22.807  -1.004  54.371  1.00  0.00    -0.002 A 
HETATM   15  C17 UNL     1      21.643  -0.146  54.047  1.00  0.00     0.027 A 
HETATM   16  C18 UNL     1      21.907   0.893  53.270  1.00  0.00     0.045 A 
HETATM   17  N5  UNL     1      20.642   1.524  53.111  1.00  0.00    -0.328 N 
HETATM   18  C19 UNL     1      19.918   2.495  52.404  1.00  0.00     0.225 C 
HETATM   19  O1  UNL     1      20.999   2.687  51.808  1.00  0.00    -0.273 OA
HETATM   20  C20 UNL     1      19.314   3.540  51.576  1.00  0.00     0.130 C 
HETATM   21  C21 UNL     1      20.319   4.184  50.703  1.00  0.00    -0.017 C 
HETATM   22  C22 UNL     1      20.618   4.406  49.432  1.00  0.00     0.005 C 
HETATM   23  H12 UNL     1      23.703   2.774  54.011  1.00  0.00     0.319 HD
HETATM   24  H19 UNL     1      19.714   1.423  53.567  1.00  0.00     0.168 HD
ENDROOT
BRANCH   7  25
HETATM   25  C7  UNL     1      25.817   4.427  49.323  1.00  0.00     0.010 A 
HETATM   26  C8  UNL     1      25.633   5.731  48.971  1.00  0.00     0.017 A 
HETATM   27  C9  UNL     1      26.631   6.537  48.471  1.00  0.00     0.020 A 
HETATM   28  C10 UNL     1      27.877   5.911  48.349  1.00  0.00     0.116 A 
HETATM   29  N2  UNL     1      28.039   4.644  48.696  1.00  0.00    -0.272 NA
HETATM   30  C11 UNL     1      27.061   3.884  49.175  1.00  0.00     0.130 A 
ENDBRANCH   7  25
TORSDOF 1
ENDMDL
MODEL 2
REMARK VINA RESULT:      -9.0      2.800      4.088
REMARK  1 active torsions:
REMARK  status: ('A' for Active; 'I' for Inactive)
REMARK    1  A    between atoms: C6_7  and  C7_8 
ROOT
HETATM    1  C1  UNL     1      17.834   0.753  51.744  1.00  0.00     0.050 C 
HETATM    2  C2  UNL     1      19.248   0.948  51.355  1.00  0.00    -0.031 C 
HETATM    3  C3  UNL     1      19.543   0.838  50.083  1.00  0.00     0.091 C 
HETATM    4  N1  UNL     1      20.747   1.096  49.800  1.00  0.00    -0.258 NA
HETATM    5  C4  UNL     1      21.512   2.105  50.402  1.00  0.00     0.119 C 
HETATM    6  C5  UNL     1      21.918   3.347  50.607  1.00  0.00     0.051 C 
HETATM    7  C6  UNL     1      22.853   4.101  51.418  1.00  0.00     0.066 C 
HETATM    8  N3  UNL     1      23.341   3.161  52.081  1.00  0.00    -0.259 NA
HETATM    9  C12 UNL     1      24.351   3.311  53.083  1.00  0.00     0.419 C 
HETATM   10  N4  UNL     1      24.661   2.041  53.751  1.00  0.00     0.113 N 
HETATM   11  C13 UNL     1      25.141   1.130  52.700  1.00  0.00     0.275 A 
HETATM   12  C14 UNL     1      26.479   1.586  52.181  1.00  0.00     0.069 A 
HETATM   13  C15 UNL     1      27.468   0.503  52.332  1.00  0.00    -0.024 A 
HETATM   14  C16 UNL     1      27.515  -0.732  52.787  1.00  0.00    -0.002 A 
HETATM   15  C17 UNL     1      26.187  -1.152  53.296  1.00  0.00     0.027 A 
HETATM   16  C18 UNL     1      25.232  -0.241  53.198  1.00  0.00     0.045 A 
HETATM   17  N5  UNL     1      24.088  -0.894  53.734  1.00  0.00    -0.328 N 
HETATM   18  C19 UNL     1      22.696  -0.836  53.895  1.00  0.00     0.225 C 
HETATM   19  O1  UNL     1      22.794   0.240  53.267  1.00  0.00    -0.273 OA
HETATM   20  C20 UNL     1      21.250  -0.622  53.973  1.00  0.00     0.130 C 
HETATM   21  C21 UNL     1      20.868   0.687  53.398  1.00  0.00    -0.017 C 
HETATM   22  C22 UNL     1      20.136   1.241  52.443  1.00  0.00     0.005 C 
HETATM   23  H12 UNL     1      25.470   2.170  54.400  1.00  0.00     0.319 HD
HETATM   24  H19 UNL     1      23.932  -1.774  54.265  1.00  0.00     0.168 HD
ENDROOT
BRANCH   7  25
HETATM   25  C7  UNL     1      22.793   5.504  51.100  1.00  0.00     0.010 A 
HETATM   26  C8  UNL     1      21.543   5.947  50.788  1.00  0.00     0.017 A 
HETATM   27  C9  UNL     1      21.255   7.250  50.447  1.00  0.00     0.020 A 
HETATM   28  C10 UNL     1      22.362   8.107  50.444  1.00  0.00     0.116 A 
HETATM   29  N2  UNL     1      23.569   7.661  50.749  1.00  0.00    -0.272 NA
HETATM   30  C11 UNL     1      23.824   6.399  51.074  1.00  0.00     0.130 A 
ENDBRANCH   7  25
TORSDOF 1
ENDMDL
MODEL 3
REMARK VINA RESULT:      -9.0      2.659      4.973
REMARK  1 active torsions:
REMARK  status: ('A' for Active; 'I' for Inactive)
REMARK    1  A    between atoms: C6_7  and  C7_8 
ROOT
HETATM    1  C1  UNL     1      26.409   8.170  50.037  1.00  0.00     0.050 C 
HETATM    2  C2  UNL     1      25.917   6.788  49.842  1.00  0.00    -0.031 C 
HETATM    3  C3  UNL     1      26.337   6.144  48.781  1.00  0.00     0.091 C 
HETATM    4  N1  UNL     1      25.951   4.943  48.712  1.00  0.00    -0.258 NA
HETATM    5  C4  UNL     1      25.833   4.074  49.806  1.00  0.00     0.119 C 
HETATM    6  C5  UNL     1      26.276   3.253  50.742  1.00  0.00     0.051 C 
HETATM    7  C6  UNL     1      25.791   2.436  51.838  1.00  0.00     0.066 C 
HETATM    8  N3  UNL     1      24.572   2.701  51.756  1.00  0.00    -0.259 NA
HETATM    9  C12 UNL     1      23.565   2.165  52.618  1.00  0.00     0.419 C 
HETATM   10  N4  UNL     1      22.238   2.727  52.335  1.00  0.00     0.113 N 
HETATM   11  C13 UNL     1      21.931   2.374  50.940  1.00  0.00     0.275 A 
HETATM   12  C14 UNL     1      21.716   0.890  50.810  1.00  0.00     0.069 A 
HETATM   13  C15 UNL     1      20.383   0.628  50.235  1.00  0.00    -0.024 A 
HETATM   14  C16 UNL     1      19.341   1.313  49.810  1.00  0.00    -0.002 A 
HETATM   15  C17 UNL     1      19.580   2.769  49.955  1.00  0.00     0.027 A 
HETATM   16  C18 UNL     1      20.756   3.100  50.463  1.00  0.00     0.045 A 
HETATM   17  N5  UNL     1      20.727   4.522  50.480  1.00  0.00    -0.328 N 
HETATM   18  C19 UNL     1      21.483   5.690  50.656  1.00  0.00     0.225 C 
HETATM   19  O1  UNL     1      22.431   4.897  50.845  1.00  0.00    -0.273 OA
HETATM   20  C20 UNL     1      22.413   6.800  50.867  1.00  0.00     0.130 C 
HETATM   21  C21 UNL     1      23.757   6.313  51.248  1.00  0.00    -0.017 C 
HETATM   22  C22 UNL     1      25.024   6.318  50.862  1.00  0.00     0.005 C 
HETATM   23  H12 UNL     1      21.516   2.240  52.912  1.00  0.00     0.319 HD
HETATM   24  H19 UNL     1      19.987   5.238  50.341  1.00  0.00     0.168 HD
ENDROOT
BRANCH   7  25
HETATM   25  C7  UNL     1      26.875   1.734  52.474  1.00  0.00     0.010 A 
HETATM   26  C8  UNL     1      26.789   0.377  52.373  1.00  0.00     0.017 A 
HETATM   27  C9  UNL     1      27.713  -0.490  52.913  1.00  0.00     0.020 A 
HETATM   28  C10 UNL     1      28.770   0.132  53.587  1.00  0.00     0.116 A 
HETATM   29  N2  UNL     1      28.838   1.450  53.675  1.00  0.00    -0.272 NA
HETATM   30  C11 UNL     1      27.936   2.269  53.148  1.00  0.00     0.130 A 
ENDBRANCH   7  25
TORSDOF 1
ENDMDL
MODEL 4
REMARK VINA RESULT:      -8.9      2.021      6.003
REMARK  1 active torsions:
REMARK  status: ('A' for Active; 'I' for Inactive)
REMARK    1  A    between atoms: C6_7  and  C7_8 
ROOT
HETATM    1  C1  UNL     1      18.689   0.176  50.998  1.00  0.00     0.050 C 
HETATM    2  C2  UNL     1      19.658   1.268  51.235  1.00  0.00    -0.031 C 
HETATM    3  C3  UNL     1      19.415   2.082  52.232  1.00  0.00     0.091 C 
HETATM    4  N1  UNL     1      20.318   2.942  52.438  1.00  0.00    -0.258 NA
HETATM    5  C4  UNL     1      21.694   2.704  52.316  1.00  0.00     0.119 C 
HETATM    6  C5  UNL     1      22.874   2.246  52.699  1.00  0.00     0.051 C 
HETATM    7  C6  UNL     1      24.250   2.179  52.248  1.00  0.00     0.066 C 
HETATM    8  N3  UNL     1      24.125   2.758  51.147  1.00  0.00    -0.259 NA
HETATM    9  C12 UNL     1      25.193   2.989  50.224  1.00  0.00     0.419 C 
HETATM   10  N4  UNL     1      24.724   3.613  48.980  1.00  0.00     0.113 N 
HETATM   11  C13 UNL     1      24.121   4.898  49.367  1.00  0.00     0.275 A 
HETATM   12  C14 UNL     1      25.180   5.849  49.855  1.00  0.00     0.069 A 
HETATM   13  C15 UNL     1      25.146   7.087  49.055  1.00  0.00    -0.024 A 
HETATM   14  C16 UNL     1      24.463   7.591  48.047  1.00  0.00    -0.002 A 
HETATM   15  C17 UNL     1      23.432   6.632  47.585  1.00  0.00     0.027 A 
HETATM   16  C18 UNL     1      23.386   5.488  48.249  1.00  0.00     0.045 A 
HETATM   17  N5  UNL     1      22.327   4.776  47.622  1.00  0.00    -0.328 N 
HETATM   18  C19 UNL     1      21.479   3.661  47.702  1.00  0.00     0.225 C 
HETATM   19  O1  UNL     1      22.101   3.422  48.760  1.00  0.00    -0.273 OA
HETATM   20  C20 UNL     1      20.680   2.459  47.939  1.00  0.00     0.130 C 
HETATM   21  C21 UNL     1      21.153   1.723  49.131  1.00  0.00    -0.017 C 
HETATM   22  C22 UNL     1      20.767   1.297  50.325  1.00  0.00     0.005 C 
HETATM   23  H12 UNL     1      25.541   3.857  48.376  1.00  0.00     0.319 HD
HETATM   24  H19 UNL     1      21.773   4.909  46.753  1.00  0.00     0.168 HD
ENDROOT
BRANCH   7  25
HETATM   25  C7  UNL     1      25.079   1.519  53.223  1.00  0.00     0.010 A 
HETATM   26  C8  UNL     1      24.706   0.234  53.485  1.00  0.00     0.017 A 
HETATM   27  C9  UNL     1      25.352  -0.582  54.386  1.00  0.00     0.020 A 
HETATM   28  C10 UNL     1      26.445   0.012  55.028  1.00  0.00     0.116 A 
HETATM   29  N2  UNL     1      26.794   1.261  54.762  1.00  0.00    -0.272 NA
HETATM   30  C11 UNL     1      26.155   2.031  53.889  1.00  0.00     0.130 A 
ENDBRANCH   7  25
TORSDOF 1
ENDMDL
MODEL 5
REMARK VINA RESULT:      -8.8      1.668      2.287
REMARK  1 active torsions:
REMARK  status: ('A' for Active; 'I' for Inactive)
REMARK    1  A    between atoms: C6_7  and  C7_8 
ROOT
HETATM    1  C1  UNL     1      18.502   3.396  49.511  1.00  0.00     0.050 C 
HETATM    2  C2  UNL     1      19.897   2.908  49.436  1.00  0.00    -0.031 C 
HETATM    3  C3  UNL     1      20.258   2.284  48.342  1.00  0.00     0.091 C 
HETATM    4  N1  UNL     1      21.480   1.964  48.301  1.00  0.00    -0.258 NA
HETATM    5  C4  UNL     1      22.531   2.751  48.794  1.00  0.00     0.119 C 
HETATM    6  C5  UNL     1      23.404   3.744  48.769  1.00  0.00     0.051 C 
HETATM    7  C6  UNL     1      24.473   4.315  49.564  1.00  0.00     0.066 C 
HETATM    8  N3  UNL     1      24.431   3.536  50.540  1.00  0.00    -0.259 NA
HETATM    9  C12 UNL     1      25.287   3.618  51.683  1.00  0.00     0.419 C 
HETATM   10  N4  UNL     1      24.944   2.621  52.704  1.00  0.00     0.113 N 
HETATM   11  C13 UNL     1      25.103   1.305  52.064  1.00  0.00     0.275 A 
HETATM   12  C14 UNL     1      26.556   1.030  51.784  1.00  0.00     0.069 A 
HETATM   13  C15 UNL     1      26.959  -0.229  52.436  1.00  0.00    -0.024 A 
HETATM   14  C16 UNL     1      26.419  -1.168  53.186  1.00  0.00    -0.002 A 
HETATM   15  C17 UNL     1      24.992  -0.868  53.450  1.00  0.00     0.027 A 
HETATM   16  C18 UNL     1      24.538   0.246  52.899  1.00  0.00     0.045 A 
HETATM   17  N5  UNL     1      23.172   0.284  53.292  1.00  0.00    -0.328 N 
HETATM   18  C19 UNL     1      21.931   0.908  53.095  1.00  0.00     0.225 C 
HETATM   19  O1  UNL     1      22.552   1.598  52.258  1.00  0.00    -0.273 OA
HETATM   20  C20 UNL     1      20.720   1.660  52.766  1.00  0.00     0.130 C 
HETATM   21  C21 UNL     1      21.005   2.748  51.805  1.00  0.00    -0.017 C 
HETATM   22  C22 UNL     1      20.695   3.188  50.595  1.00  0.00     0.005 C 
HETATM   23  H12 UNL     1      25.650   2.644  53.474  1.00  0.00     0.319 HD
HETATM   24  H19 UNL     1      22.595  -0.245  53.974  1.00  0.00     0.168 HD
ENDROOT
BRANCH   7  25
HETATM   25  C7  UNL     1      25.059   5.449  48.897  1.00  0.00     0.010 A 
HETATM   26  C8  UNL     1      26.422   5.441  48.888  1.00  0.00     0.017 A 
HETATM   27  C9  UNL     1      27.189   6.429  48.312  1.00  0.00     0.020 A 
HETATM   28  C10 UNL     1      26.456   7.465  47.722  1.00  0.00     0.116 A 
HETATM   29  N2  UNL     1      25.132   7.457  47.739  1.00  0.00    -0.272 NA
HETATM   30  C11 UNL     1      24.412   6.494  48.302  1.00  0.00     0.130 A 
ENDBRANCH   7  25
TORSDOF 1
ENDMDL
MODEL 6
REMARK VINA RESULT:      -8.4      2.200      5.178
REMARK  1 active torsions:
REMARK  status: ('A' for Active; 'I' for Inactive)
REMARK    1  A    between atoms: C6_7  and  C7_8 
ROOT
HETATM    1  C1  UNL     1      25.297   6.982  50.249  1.00  0.00     0.050 C 
HETATM    2  C2  UNL     1      24.668   5.648  50.137  1.00  0.00    -0.031 C 
HETATM    3  C3  UNL     1      25.115   4.848  49.200  1.00  0.00     0.091 C 
HETATM    4  N1  UNL     1      24.599   3.695  49.206  1.00  0.00    -0.258 NA
HETATM    5  C4  UNL     1      24.268   2.971  50.361  1.00  0.00     0.119 C 
HETATM    6  C5  UNL     1      24.512   2.216  51.418  1.00  0.00     0.051 C 
HETATM    7  C6  UNL     1      23.824   1.583  52.526  1.00  0.00     0.066 C 
HETATM    8  N3  UNL     1      22.660   1.967  52.280  1.00  0.00    -0.259 NA
HETATM    9  C12 UNL     1      21.513   1.641  53.070  1.00  0.00     0.419 C 
HETATM   10  N4  UNL     1      20.299   2.306  52.583  1.00  0.00     0.113 N 
HETATM   11  C13 UNL     1      20.097   1.834  51.204  1.00  0.00     0.275 A 
HETATM   12  C14 UNL     1      19.722   0.376  51.198  1.00  0.00     0.069 A 
HETATM   13  C15 UNL     1      18.433   0.196  50.503  1.00  0.00    -0.024 A 
HETATM   14  C16 UNL     1      17.529   0.937  49.896  1.00  0.00    -0.002 A 
HETATM   15  C17 UNL     1      17.921   2.366  49.922  1.00  0.00     0.027 A 
HETATM   16  C18 UNL     1      19.071   2.624  50.526  1.00  0.00     0.045 A 
HETATM   17  N5  UNL     1      19.208   4.034  50.399  1.00  0.00    -0.328 N 
HETATM   18  C19 UNL     1      20.076   5.126  50.544  1.00  0.00     0.225 C 
HETATM   19  O1  UNL     1      20.899   4.263  50.917  1.00  0.00    -0.273 OA
HETATM   20  C20 UNL     1      21.104   6.148  50.748  1.00  0.00     0.130 C 
HETATM   21  C21 UNL     1      22.334   5.565  51.327  1.00  0.00    -0.017 C 
HETATM   22  C22 UNL     1      23.626   5.392  51.090  1.00  0.00     0.005 C 
HETATM   23  H12 UNL     1      19.468   1.966  53.119  1.00  0.00     0.319 HD
HETATM   24  H19 UNL     1      18.576   4.805  50.105  1.00  0.00     0.168 HD
ENDROOT
BRANCH   7  25
HETATM   25  C7  UNL     1      24.747   0.845  53.349  1.00  0.00     0.010 A 
HETATM   26  C8  UNL     1      25.921   1.496  53.584  1.00  0.00     0.017 A 
HETATM   27  C9  UNL     1      26.948   0.974  54.339  1.00  0.00     0.020 A 
HETATM   28  C10 UNL     1      26.695  -0.299  54.862  1.00  0.00     0.116 A 
HETATM   29  N2  UNL     1      25.550  -0.917  54.625  1.00  0.00    -0.272 NA
HETATM   30  C11 UNL     1      24.573  -0.396  53.893  1.00  0.00     0.130 A 
ENDBRANCH   7  25
TORSDOF 1
ENDMDL
MODEL 7
REMARK VINA RESULT:      -8.4      6.840     10.674
REMARK  1 active torsions:
REMARK  status: ('A' for Active; 'I' for Inactive)
REMARK    1  A    between atoms: C6_7  and  C7_8 
ROOT
HETATM    1  C1  UNL     1      33.226  11.601  44.777  1.00  0.00     0.050 C 
HETATM    2  C2  UNL     1      32.396  10.388  44.943  1.00  0.00    -0.031 C 
HETATM    3  C3  UNL     1      31.937   9.819  43.855  1.00  0.00     0.091 C 
HETATM    4  N1  UNL     1      31.306   8.743  44.054  1.00  0.00    -0.258 NA
HETATM    5  C4  UNL     1      31.649   7.777  45.011  1.00  0.00     0.119 C 
HETATM    6  C5  UNL     1      32.342   6.765  45.503  1.00  0.00     0.051 C 
HETATM    7  C6  UNL     1      32.415   5.925  46.683  1.00  0.00     0.066 C 
HETATM    8  N3  UNL     1      31.493   6.442  47.350  1.00  0.00    -0.259 NA
HETATM    9  C12 UNL     1      31.095   6.013  48.655  1.00  0.00     0.419 C 
HETATM   10  N4  UNL     1      30.043   6.866  49.221  1.00  0.00     0.113 N 
HETATM   11  C13 UNL     1      28.898   6.773  48.301  1.00  0.00     0.275 A 
HETATM   12  C14 UNL     1      28.294   5.395  48.353  1.00  0.00     0.069 A 
HETATM   13  C15 UNL     1      26.865   5.491  48.705  1.00  0.00    -0.024 A 
HETATM   14  C16 UNL     1      25.979   6.424  48.985  1.00  0.00    -0.002 A 
HETATM   15  C17 UNL     1      26.603   7.768  48.931  1.00  0.00     0.027 A 
HETATM   16  C18 UNL     1      27.889   7.781  48.619  1.00  0.00     0.045 A 
HETATM   17  N5  UNL     1      28.223   9.164  48.626  1.00  0.00    -0.328 N 
HETATM   18  C19 UNL     1      29.194  10.118  48.290  1.00  0.00     0.225 C 
HETATM   19  O1  UNL     1      29.842   9.131  47.881  1.00  0.00    -0.273 OA
HETATM   20  C20 UNL     1      30.305  10.977  47.877  1.00  0.00     0.130 C 
HETATM   21  C21 UNL     1      31.446  10.179  47.376  1.00  0.00    -0.017 C 
HETATM   22  C22 UNL     1      32.196   9.977  46.303  1.00  0.00     0.005 C 
HETATM   23  H12 UNL     1      29.708   6.463  50.126  1.00  0.00     0.319 HD
HETATM   24  H19 UNL     1      27.745  10.028  48.951  1.00  0.00     0.168 HD
ENDROOT
BRANCH   7  25
HETATM   25  C7  UNL     1      33.454   4.938  46.547  1.00  0.00     0.010 A 
HETATM   26  C8  UNL     1      33.985   4.863  45.293  1.00  0.00     0.017 A 
HETATM   27  C9  UNL     1      34.985   3.986  44.937  1.00  0.00     0.020 A 
HETATM   28  C10 UNL     1      35.430   3.159  45.974  1.00  0.00     0.116 A 
HETATM   29  N2  UNL     1      34.905   3.245  47.186  1.00  0.00    -0.272 NA
HETATM   30  C11 UNL     1      33.939   4.098  47.508  1.00  0.00     0.130 A 
ENDBRANCH   7  25
TORSDOF 1
ENDMDL
MODEL 8
REMARK VINA RESULT:      -8.2      2.232      5.723
REMARK  1 active torsions:
REMARK  status: ('A' for Active; 'I' for Inactive)
REMARK    1  A    between atoms: C6_7  and  C7_8 
ROOT
HETATM    1  C1  UNL     1      25.597   6.141  49.460  1.00  0.00     0.050 C 
HETATM    2  C2  UNL     1      24.702   5.467  50.427  1.00  0.00    -0.031 C 
HETATM    3  C3  UNL     1      24.242   6.184  51.422  1.00  0.00     0.091 C 
HETATM    4  N1  UNL     1      23.419   5.580  52.166  1.00  0.00    -0.258 NA
HETATM    5  C4  UNL     1      22.448   4.673  51.717  1.00  0.00     0.119 C 
HETATM    6  C5  UNL     1      21.301   4.314  51.165  1.00  0.00     0.051 C 
HETATM    7  C6  UNL     1      20.543   3.126  50.828  1.00  0.00     0.066 C 
HETATM    8  N3  UNL     1      21.350   2.258  51.227  1.00  0.00    -0.259 NA
HETATM    9  C12 UNL     1      21.132   0.847  51.147  1.00  0.00     0.419 C 
HETATM   10  N4  UNL     1      22.292   0.080  51.615  1.00  0.00     0.113 N 
HETATM   11  C13 UNL     1      22.501   0.466  53.020  1.00  0.00     0.275 A 
HETATM   12  C14 UNL     1      21.375  -0.047  53.878  1.00  0.00     0.069 A 
HETATM   13  C15 UNL     1      21.917  -0.892  54.958  1.00  0.00    -0.024 A 
HETATM   14  C16 UNL     1      23.089  -1.322  55.379  1.00  0.00    -0.002 A 
HETATM   15  C17 UNL     1      24.176  -0.806  54.514  1.00  0.00     0.027 A 
HETATM   16  C18 UNL     1      23.783  -0.032  53.514  1.00  0.00     0.045 A 
HETATM   17  N5  UNL     1      24.998   0.325  52.868  1.00  0.00    -0.328 N 
HETATM   18  C19 UNL     1      25.594   1.164  51.914  1.00  0.00     0.225 C 
HETATM   19  O1  UNL     1      24.437   1.612  51.768  1.00  0.00    -0.273 OA
HETATM   20  C20 UNL     1      26.053   2.108  50.895  1.00  0.00     0.130 C 
HETATM   21  C21 UNL     1      24.922   2.859  50.307  1.00  0.00    -0.017 C 
HETATM   22  C22 UNL     1      24.445   4.084  50.145  1.00  0.00     0.005 C 
HETATM   23  H12 UNL     1      22.060  -0.939  51.637  1.00  0.00     0.319 HD
HETATM   24  H19 UNL     1      25.982  -0.002  52.931  1.00  0.00     0.168 HD
ENDROOT
BRANCH   7  25
HETATM   25  C7  UNL     1      19.282   3.473  50.227  1.00  0.00     0.010 A 
HETATM   26  C8  UNL     1      18.367   3.965  51.109  1.00  0.00     0.017 A 
HETATM   27  C9  UNL     1      17.095   4.355  50.754  1.00  0.00     0.020 A 
HETATM   28  C10 UNL     1      16.800   4.209  49.394  1.00  0.00     0.116 A 
HETATM   29  N2  UNL     1      17.700   3.730  48.551  1.00  0.00    -0.272 NA
HETATM   30  C11 UNL     1      18.922   3.359  48.915  1.00  0.00     0.130 A 
ENDBRANCH   7  25
TORSDOF 1
ENDMDL
MODEL 9
REMARK VINA RESULT:      -8.2      1.958      6.224
REMARK  1 active torsions:
REMARK  status: ('A' for Active; 'I' for Inactive)
REMARK    1  A    between atoms: C6_7  and  C7_8 
ROOT
HETATM    1  C1  UNL     1      16.670   1.725  49.911  1.00  0.00     0.050 C 
HETATM    2  C2  UNL     1      17.884   2.391  50.431  1.00  0.00    -0.031 C 
HETATM    3  C3  UNL     1      17.745   3.161  51.481  1.00  0.00     0.091 C 
HETATM    4  N1  UNL     1      18.827   3.635  51.929  1.00  0.00    -0.258 NA
HETATM    5  C4  UNL     1      20.046   2.943  51.979  1.00  0.00     0.119 C 
HETATM    6  C5  UNL     1      20.918   2.077  52.464  1.00  0.00     0.051 C 
HETATM    7  C6  UNL     1      22.253   1.570  52.213  1.00  0.00     0.066 C 
HETATM    8  N3  UNL     1      22.529   2.238  51.193  1.00  0.00    -0.259 NA
HETATM    9  C12 UNL     1      23.762   2.153  50.475  1.00  0.00     0.419 C 
HETATM   10  N4  UNL     1      23.761   2.993  49.271  1.00  0.00     0.113 N 
HETATM   11  C13 UNL     1      23.555   4.374  49.734  1.00  0.00     0.275 A 
HETATM   12  C14 UNL     1      24.761   4.858  50.494  1.00  0.00     0.069 A 
HETATM   13  C15 UNL     1      25.283   6.088  49.870  1.00  0.00    -0.024 A 
HETATM   14  C16 UNL     1      25.000   6.872  48.850  1.00  0.00    -0.002 A 
HETATM   15  C17 UNL     1      23.813   6.370  48.118  1.00  0.00     0.027 A 
HETATM   16  C18 UNL     1      23.273   5.266  48.610  1.00  0.00     0.045 A 
HETATM   17  N5  UNL     1      22.172   5.017  47.746  1.00  0.00    -0.328 N 
HETATM   18  C19 UNL     1      21.005   4.263  47.552  1.00  0.00     0.225 C 
HETATM   19  O1  UNL     1      21.308   3.743  48.647  1.00  0.00    -0.273 OA
HETATM   20  C20 UNL     1      19.824   3.399  47.507  1.00  0.00     0.130 C 
HETATM   21  C21 UNL     1      19.803   2.456  48.646  1.00  0.00    -0.017 C 
HETATM   22  C22 UNL     1      19.087   2.102  49.703  1.00  0.00     0.005 C 
HETATM   23  H12 UNL     1      24.709   2.984  48.830  1.00  0.00     0.319 HD
HETATM   24  H19 UNL     1      21.861   5.399  46.831  1.00  0.00     0.168 HD
ENDROOT
BRANCH   7  25
HETATM   25  C7  UNL     1      22.625   0.591  53.201  1.00  0.00     0.010 A 
HETATM   26  C8  UNL     1      21.582   0.143  53.955  1.00  0.00     0.017 A 
HETATM   27  C9  UNL     1      21.709  -0.789  54.961  1.00  0.00     0.020 A 
HETATM   28  C10 UNL     1      23.013  -1.257  55.158  1.00  0.00     0.116 A 
HETATM   29  N2  UNL     1      24.015  -0.812  54.417  1.00  0.00    -0.272 NA
HETATM   30  C11 UNL     1      23.870   0.089  53.453  1.00  0.00     0.130 A 
ENDBRANCH   7  25
TORSDOF 1
ENDMDL
