MODEL 1
REMARK VINA RESULT:      -9.3      0.000      0.000
REMARK  2 active torsions:
REMARK  status: ('A' for Active; 'I' for Inactive)
REMARK    1  A    between atoms: C9_12  and  C10_13 
REMARK    2  A    between atoms: C10_13  and  C11_14 
ROOT
HETATM    1  C1  UNL     1      29.417   1.734  54.582  1.00  0.00     0.043 C 
HETATM    2  C2  UNL     1      28.650   0.491  54.201  1.00  0.00    -0.081 C 
HETATM    3  C3  UNL     1      29.518  -0.333  53.584  1.00  0.00     0.004 C 
HETATM    4  C4  UNL     1      29.067  -1.652  53.083  1.00  0.00     0.017 C 
HETATM    5  C5  UNL     1      27.829  -2.192  53.078  1.00  0.00     0.084 C 
HETATM    6  N1  UNL     1      26.619  -1.579  53.580  1.00  0.00    -0.384 N 
HETATM    7  C6  UNL     1      26.338  -0.164  53.482  1.00  0.00     0.077 C 
HETATM    8  C7  UNL     1      26.748   0.436  52.162  1.00  0.00     0.059 C 
HETATM    9  C8  UNL     1      26.040   1.747  51.857  1.00  0.00     0.144 C 
HETATM   10  N2  UNL     1      25.493   2.331  53.069  1.00  0.00    -0.314 N 
HETATM   11  N3  UNL     1      24.563   1.413  53.560  1.00  0.00    -0.186 NA
HETATM   12  C9  UNL     1      24.941   0.198  53.770  1.00  0.00     0.061 C 
HETATM   13  C19 UNL     1      27.234   0.467  54.569  1.00  0.00     0.071 C 
HETATM   14  H7  UNL     1      26.054  -2.378  54.005  1.00  0.00     0.160 HD
HETATM   15  H12 UNL     1      25.795   3.277  53.440  1.00  0.00     0.182 HD
ENDROOT
BRANCH  12  16
HETATM   16  C10 UNL     1      23.816  -0.623  54.270  1.00  0.00     0.069 C 
BRANCH  16  17
HETATM   17  C11 UNL     1      22.518  -0.351  53.531  1.00  0.00    -0.011 A 
HETATM   18  C12 UNL     1      21.704  -0.700  54.571  1.00  0.00     0.129 A 
HETATM   19  C13 UNL     1      20.610  -0.400  53.744  1.00  0.00    -0.098 A 
HETATM   20  C14 UNL     1      19.707  -0.142  53.035  1.00  0.00    -0.084 A 
HETATM   21  C15 UNL     1      18.636   0.174  52.164  1.00  0.00     0.241 A 
HETATM   22  N4  UNL     1      19.231   0.613  50.875  1.00  0.00    -0.290 NA
HETATM   23  C16 UNL     1      20.551   0.608  50.841  1.00  0.00     0.111 A 
HETATM   24  C17 UNL     1      21.928   0.462  51.208  1.00  0.00     0.015 A 
HETATM   25  C18 UNL     1      22.793   0.135  52.122  1.00  0.00    -0.019 A 
ENDBRANCH  16  17
ENDBRANCH  12  16
TORSDOF 2
ENDMDL
MODEL 2
REMARK VINA RESULT:      -9.2      3.038      7.020
REMARK  2 active torsions:
REMARK  status: ('A' for Active; 'I' for Inactive)
REMARK    1  A    between atoms: C9_12  and  C10_13 
REMARK    2  A    between atoms: C10_13  and  C11_14 
ROOT
HETATM    1  C1  UNL     1      22.562   2.112  48.357  1.00  0.00     0.043 C 
HETATM    2  C2  UNL     1      22.708   2.703  49.737  1.00  0.00    -0.081 C 
HETATM    3  C3  UNL     1      21.699   3.579  49.899  1.00  0.00     0.004 C 
HETATM    4  C4  UNL     1      21.562   4.336  51.165  1.00  0.00     0.017 C 
HETATM    5  C5  UNL     1      22.368   4.350  52.249  1.00  0.00     0.084 C 
HETATM    6  N1  UNL     1      23.593   3.603  52.422  1.00  0.00    -0.384 N 
HETATM    7  C6  UNL     1      24.525   3.332  51.349  1.00  0.00     0.077 C 
HETATM    8  C7  UNL     1      24.725   4.504  50.422  1.00  0.00     0.059 C 
HETATM    9  C8  UNL     1      26.015   4.416  49.621  1.00  0.00     0.144 C 
HETATM   10  N2  UNL     1      26.515   3.053  49.597  1.00  0.00    -0.314 N 
HETATM   11  N3  UNL     1      26.777   2.709  50.924  1.00  0.00    -0.186 NA
HETATM   12  C9  UNL     1      25.835   2.833  51.796  1.00  0.00     0.061 C 
HETATM   13  C19 UNL     1      23.836   2.217  50.534  1.00  0.00     0.071 C 
HETATM   14  H7  UNL     1      23.612   3.328  53.452  1.00  0.00     0.160 HD
HETATM   15  H12 UNL     1      26.629   2.498  48.701  1.00  0.00     0.182 HD
ENDROOT
BRANCH  12  16
HETATM   16  C10 UNL     1      26.309   2.438  53.140  1.00  0.00     0.069 C 
BRANCH  16  17
HETATM   17  C11 UNL     1      27.023   1.098  53.140  1.00  0.00    -0.011 A 
HETATM   18  C12 UNL     1      28.217   1.590  53.586  1.00  0.00     0.129 A 
HETATM   19  C13 UNL     1      28.716   0.279  53.525  1.00  0.00    -0.098 A 
HETATM   20  C14 UNL     1      29.116  -0.826  53.468  1.00  0.00    -0.084 A 
HETATM   21  C15 UNL     1      29.574  -2.164  53.391  1.00  0.00     0.241 A 
HETATM   22  N4  UNL     1      28.438  -2.992  52.909  1.00  0.00    -0.290 NA
HETATM   23  C16 UNL     1      27.323  -2.325  52.676  1.00  0.00     0.111 A 
HETATM   24  C17 UNL     1      26.359  -1.273  52.552  1.00  0.00     0.015 A 
HETATM   25  C18 UNL     1      26.093  -0.006  52.677  1.00  0.00    -0.019 A 
ENDBRANCH  16  17
ENDBRANCH  12  16
TORSDOF 2
ENDMDL
MODEL 3
REMARK VINA RESULT:      -9.1      2.042      3.636
REMARK  2 active torsions:
REMARK  status: ('A' for Active; 'I' for Inactive)
REMARK    1  A    between atoms: C9_12  and  C10_13 
REMARK    2  A    between atoms: C10_13  and  C11_14 
ROOT
HETATM    1  C1  UNL     1      27.857  -2.508  52.637  1.00  0.00     0.043 C 
HETATM    2  C2  UNL     1      27.874  -1.027  52.927  1.00  0.00    -0.081 C 
HETATM    3  C3  UNL     1      29.097  -0.734  53.408  1.00  0.00     0.004 C 
HETATM    4  C4  UNL     1      29.435   0.656  53.793  1.00  0.00     0.017 C 
HETATM    5  C5  UNL     1      28.653   1.757  53.808  1.00  0.00     0.084 C 
HETATM    6  N1  UNL     1      27.257   1.830  53.438  1.00  0.00    -0.384 N 
HETATM    7  C6  UNL     1      26.304   0.772  53.697  1.00  0.00     0.077 C 
HETATM    8  C7  UNL     1      26.480   0.129  55.049  1.00  0.00     0.059 C 
HETATM    9  C8  UNL     1      25.236  -0.605  55.525  1.00  0.00     0.144 C 
HETATM   10  N2  UNL     1      24.351  -0.895  54.411  1.00  0.00    -0.314 N 
HETATM   11  N3  UNL     1      23.976   0.339  53.878  1.00  0.00    -0.186 NA
HETATM   12  C9  UNL     1      24.898   1.168  53.524  1.00  0.00     0.061 C 
HETATM   13  C19 UNL     1      26.640  -0.296  52.635  1.00  0.00     0.071 C 
HETATM   14  H7  UNL     1      27.140   2.777  52.963  1.00  0.00     0.160 HD
HETATM   15  H12 UNL     1      24.089  -1.882  54.125  1.00  0.00     0.182 HD
ENDROOT
BRANCH  12  16
HETATM   16  C10 UNL     1      24.306   2.420  53.002  1.00  0.00     0.069 C 
BRANCH  16  17
HETATM   17  C11 UNL     1      23.680   2.245  51.630  1.00  0.00    -0.011 A 
HETATM   18  C12 UNL     1      24.531   3.101  50.991  1.00  0.00     0.129 A 
HETATM   19  C13 UNL     1      23.834   2.822  49.805  1.00  0.00    -0.098 A 
HETATM   20  C14 UNL     1      23.237   2.575  48.822  1.00  0.00    -0.084 A 
HETATM   21  C15 UNL     1      22.504   2.261  47.652  1.00  0.00     0.241 A 
HETATM   22  N4  UNL     1      21.444   1.295  48.041  1.00  0.00    -0.290 NA
HETATM   23  C16 UNL     1      21.430   0.969  49.320  1.00  0.00     0.111 A 
HETATM   24  C17 UNL     1      21.750   0.887  50.714  1.00  0.00     0.015 A 
HETATM   25  C18 UNL     1      22.517   1.275  51.691  1.00  0.00    -0.019 A 
ENDBRANCH  16  17
ENDBRANCH  12  16
TORSDOF 2
ENDMDL
MODEL 4
REMARK VINA RESULT:      -9.0      2.857      6.690
REMARK  2 active torsions:
REMARK  status: ('A' for Active; 'I' for Inactive)
REMARK    1  A    between atoms: C9_12  and  C10_13 
REMARK    2  A    between atoms: C10_13  and  C11_14 
ROOT
HETATM    1  C1  UNL     1      24.995   5.388  48.964  1.00  0.00     0.043 C 
HETATM    2  C2  UNL     1      24.221   4.129  49.268  1.00  0.00    -0.081 C 
HETATM    3  C3  UNL     1      23.313   3.979  48.286  1.00  0.00     0.004 C 
HETATM    4  C4  UNL     1      22.385   2.823  48.295  1.00  0.00     0.017 C 
HETATM    5  C5  UNL     1      22.235   1.851  49.220  1.00  0.00     0.084 C 
HETATM    6  N1  UNL     1      22.973   1.714  50.456  1.00  0.00    -0.384 N 
HETATM    7  C6  UNL     1      23.406   2.838  51.258  1.00  0.00     0.077 C 
HETATM    8  C7  UNL     1      22.378   3.935  51.353  1.00  0.00     0.059 C 
HETATM    9  C8  UNL     1      22.599   4.857  52.543  1.00  0.00     0.144 C 
HETATM   10  N2  UNL     1      23.960   4.747  53.034  1.00  0.00    -0.314 N 
HETATM   11  N3  UNL     1      24.122   3.424  53.446  1.00  0.00    -0.186 NA
HETATM   12  C9  UNL     1      23.861   2.477  52.611  1.00  0.00     0.061 C 
HETATM   13  C19 UNL     1      24.611   3.405  50.479  1.00  0.00     0.071 C 
HETATM   14  H7  UNL     1      23.101   0.665  50.593  1.00  0.00     0.160 HD
HETATM   15  H12 UNL     1      24.637   5.564  53.044  1.00  0.00     0.182 HD
ENDROOT
BRANCH  12  16
HETATM   16  C10 UNL     1      24.074   1.152  53.235  1.00  0.00     0.069 C 
BRANCH  16  17
HETATM   17  C11 UNL     1      25.539   0.758  53.287  1.00  0.00    -0.011 A 
HETATM   18  C12 UNL     1      25.319  -0.576  53.090  1.00  0.00     0.129 A 
HETATM   19  C13 UNL     1      26.709  -0.760  53.166  1.00  0.00    -0.098 A 
HETATM   20  C14 UNL     1      27.877  -0.893  53.232  1.00  0.00    -0.084 A 
HETATM   21  C15 UNL     1      29.283  -1.028  53.315  1.00  0.00     0.241 A 
HETATM   22  N4  UNL     1      29.845   0.329  53.540  1.00  0.00    -0.290 NA
HETATM   23  C16 UNL     1      28.950   1.297  53.607  1.00  0.00     0.111 A 
HETATM   24  C17 UNL     1      27.711   2.016  53.615  1.00  0.00     0.015 A 
HETATM   25  C18 UNL     1      26.415   1.974  53.516  1.00  0.00    -0.019 A 
ENDBRANCH  16  17
ENDBRANCH  12  16
TORSDOF 2
ENDMDL
MODEL 5
REMARK VINA RESULT:      -8.7      2.967      6.454
REMARK  2 active torsions:
REMARK  status: ('A' for Active; 'I' for Inactive)
REMARK    1  A    between atoms: C9_12  and  C10_13 
REMARK    2  A    between atoms: C10_13  and  C11_14 
ROOT
HETATM    1  C1  UNL     1      23.065   6.514  49.253  1.00  0.00     0.043 C 
HETATM    2  C2  UNL     1      24.221   5.661  49.716  1.00  0.00    -0.081 C 
HETATM    3  C3  UNL     1      25.150   5.695  48.743  1.00  0.00     0.004 C 
HETATM    4  C4  UNL     1      26.420   4.947  48.896  1.00  0.00     0.017 C 
HETATM    5  C5  UNL     1      26.816   4.122  49.889  1.00  0.00     0.084 C 
HETATM    6  N1  UNL     1      26.061   3.769  51.070  1.00  0.00    -0.384 N 
HETATM    7  C6  UNL     1      24.625   3.595  51.081  1.00  0.00     0.077 C 
HETATM    8  C7  UNL     1      24.102   2.878  49.862  1.00  0.00     0.059 C 
HETATM    9  C8  UNL     1      22.725   2.267  50.076  1.00  0.00     0.144 C 
HETATM   10  N2  UNL     1      22.060   2.881  51.211  1.00  0.00    -0.314 N 
HETATM   11  N3  UNL     1      22.857   2.612  52.325  1.00  0.00    -0.186 NA
HETATM   12  C9  UNL     1      24.102   2.944  52.292  1.00  0.00     0.061 C 
HETATM   13  C19 UNL     1      24.077   5.037  51.032  1.00  0.00     0.071 C 
HETATM   14  H7  UNL     1      26.782   3.689  51.852  1.00  0.00     0.160 HD
HETATM   15  H12 UNL     1      21.146   3.413  51.125  1.00  0.00     0.182 HD
ENDROOT
BRANCH  12  16
HETATM   16  C10 UNL     1      24.780   2.563  53.551  1.00  0.00     0.069 C 
BRANCH  16  17
HETATM   17  C11 UNL     1      25.659   1.335  53.394  1.00  0.00    -0.011 A 
HETATM   18  C12 UNL     1      24.662   0.521  52.937  1.00  0.00     0.129 A 
HETATM   19  C13 UNL     1      25.614  -0.507  52.855  1.00  0.00    -0.098 A 
HETATM   20  C14 UNL     1      26.427  -1.356  52.792  1.00  0.00    -0.084 A 
HETATM   21  C15 UNL     1      27.423  -2.360  52.725  1.00  0.00     0.241 A 
HETATM   22  N4  UNL     1      28.697  -1.749  53.184  1.00  0.00    -0.290 NA
HETATM   23  C16 UNL     1      28.612  -0.478  53.531  1.00  0.00     0.111 A 
HETATM   24  C17 UNL     1      28.108   0.836  53.797  1.00  0.00     0.015 A 
HETATM   25  C18 UNL     1      27.087   1.642  53.801  1.00  0.00    -0.019 A 
ENDBRANCH  16  17
ENDBRANCH  12  16
TORSDOF 2
ENDMDL
MODEL 6
REMARK VINA RESULT:      -8.5      3.633      6.231
REMARK  2 active torsions:
REMARK  status: ('A' for Active; 'I' for Inactive)
REMARK    1  A    between atoms: C9_12  and  C10_13 
REMARK    2  A    between atoms: C10_13  and  C11_14 
ROOT
HETATM    1  C1  UNL     1      23.843   7.125  48.508  1.00  0.00     0.043 C 
HETATM    2  C2  UNL     1      23.517   5.652  48.471  1.00  0.00    -0.081 C 
HETATM    3  C3  UNL     1      22.541   5.489  47.557  1.00  0.00     0.004 C 
HETATM    4  C4  UNL     1      21.993   4.140  47.283  1.00  0.00     0.017 C 
HETATM    5  C5  UNL     1      22.275   2.961  47.878  1.00  0.00     0.084 C 
HETATM    6  N1  UNL     1      23.211   2.742  48.958  1.00  0.00    -0.384 N 
HETATM    7  C6  UNL     1      23.434   3.689  50.029  1.00  0.00     0.077 C 
HETATM    8  C7  UNL     1      22.166   4.336  50.526  1.00  0.00     0.059 C 
HETATM    9  C8  UNL     1      22.307   4.928  51.920  1.00  0.00     0.144 C 
HETATM   10  N2  UNL     1      23.706   5.130  52.256  1.00  0.00    -0.314 N 
HETATM   11  N3  UNL     1      24.299   3.867  52.234  1.00  0.00    -0.186 NA
HETATM   12  C9  UNL     1      24.185   3.145  51.172  1.00  0.00     0.061 C 
HETATM   13  C19 UNL     1      24.286   4.795  49.374  1.00  0.00     0.071 C 
HETATM   14  H7  UNL     1      23.652   1.791  48.760  1.00  0.00     0.160 HD
HETATM   15  H12 UNL     1      24.116   6.085  52.464  1.00  0.00     0.182 HD
ENDROOT
BRANCH  12  16
HETATM   16  C10 UNL     1      24.861   1.841  51.348  1.00  0.00     0.069 C 
BRANCH  16  17
HETATM   17  C11 UNL     1      24.180   0.960  52.379  1.00  0.00    -0.011 A 
HETATM   18  C12 UNL     1      25.334   0.558  52.988  1.00  0.00     0.129 A 
HETATM   19  C13 UNL     1      24.544  -0.204  53.862  1.00  0.00    -0.098 A 
HETATM   20  C14 UNL     1      23.863  -0.835  54.586  1.00  0.00    -0.084 A 
HETATM   21  C15 UNL     1      23.024  -1.587  55.443  1.00  0.00     0.241 A 
HETATM   22  N4  UNL     1      21.623  -1.345  55.013  1.00  0.00    -0.290 NA
HETATM   23  C16 UNL     1      21.490  -0.528  53.984  1.00  0.00     0.111 A 
HETATM   24  C17 UNL     1      21.775   0.364  52.900  1.00  0.00     0.015 A 
HETATM   25  C18 UNL     1      22.674   0.992  52.201  1.00  0.00    -0.019 A 
ENDBRANCH  16  17
ENDBRANCH  12  16
TORSDOF 2
ENDMDL
MODEL 7
REMARK VINA RESULT:      -8.5      4.095      6.867
REMARK  2 active torsions:
REMARK  status: ('A' for Active; 'I' for Inactive)
REMARK    1  A    between atoms: C9_12  and  C10_13 
REMARK    2  A    between atoms: C10_13  and  C11_14 
ROOT
HETATM    1  C1  UNL     1      21.956   0.190  54.055  1.00  0.00     0.043 C 
HETATM    2  C2  UNL     1      23.217   0.370  53.245  1.00  0.00    -0.081 C 
HETATM    3  C3  UNL     1      24.205  -0.256  53.912  1.00  0.00     0.004 C 
HETATM    4  C4  UNL     1      25.584  -0.261  53.370  1.00  0.00     0.017 C 
HETATM    5  C5  UNL     1      26.078   0.350  52.272  1.00  0.00     0.084 C 
HETATM    6  N1  UNL     1      25.344   1.181  51.343  1.00  0.00    -0.384 N 
HETATM    7  C6  UNL     1      24.276   2.073  51.738  1.00  0.00     0.077 C 
HETATM    8  C7  UNL     1      24.556   2.806  53.025  1.00  0.00     0.059 C 
HETATM    9  C8  UNL     1      23.714   4.062  53.190  1.00  0.00     0.144 C 
HETATM   10  N2  UNL     1      22.552   4.021  52.320  1.00  0.00    -0.314 N 
HETATM   11  N3  UNL     1      23.043   3.969  51.015  1.00  0.00    -0.186 NA
HETATM   12  C9  UNL     1      23.879   3.039  50.702  1.00  0.00     0.061 C 
HETATM   13  C19 UNL     1      23.084   1.129  52.001  1.00  0.00     0.071 C 
HETATM   14  H7  UNL     1      25.761   0.968  50.385  1.00  0.00     0.160 HD
HETATM   15  H12 UNL     1      21.557   4.033  52.687  1.00  0.00     0.182 HD
ENDROOT
BRANCH  12  16
HETATM   16  C10 UNL     1      24.295   3.160  49.287  1.00  0.00     0.069 C 
BRANCH  16  17
HETATM   17  C11 UNL     1      25.053   4.445  49.007  1.00  0.00    -0.011 A 
HETATM   18  C12 UNL     1      26.284   3.934  49.301  1.00  0.00     0.129 A 
HETATM   19  C13 UNL     1      26.819   5.197  49.001  1.00  0.00    -0.098 A 
HETATM   20  C14 UNL     1      27.249   6.262  48.744  1.00  0.00    -0.084 A 
HETATM   21  C15 UNL     1      27.741   7.552  48.430  1.00  0.00     0.241 A 
HETATM   22  N4  UNL     1      26.575   8.389  48.048  1.00  0.00    -0.290 NA
HETATM   23  C16 UNL     1      25.409   7.770  48.088  1.00  0.00     0.111 A 
HETATM   24  C17 UNL     1      24.395   6.772  48.256  1.00  0.00     0.015 A 
HETATM   25  C18 UNL     1      24.103   5.546  48.575  1.00  0.00    -0.019 A 
ENDBRANCH  16  17
ENDBRANCH  12  16
TORSDOF 2
ENDMDL
MODEL 8
REMARK VINA RESULT:      -8.3      7.803     10.017
REMARK  2 active torsions:
REMARK  status: ('A' for Active; 'I' for Inactive)
REMARK    1  A    between atoms: C9_12  and  C10_13 
REMARK    2  A    between atoms: C10_13  and  C11_14 
ROOT
HETATM    1  C1  UNL     1      33.365   2.104  48.012  1.00  0.00     0.043 C 
HETATM    2  C2  UNL     1      33.118   3.283  47.102  1.00  0.00    -0.081 C 
HETATM    3  C3  UNL     1      34.054   3.237  46.136  1.00  0.00     0.004 C 
HETATM    4  C4  UNL     1      34.083   4.270  45.074  1.00  0.00     0.017 C 
HETATM    5  C5  UNL     1      33.316   5.372  44.927  1.00  0.00     0.084 C 
HETATM    6  N1  UNL     1      32.255   5.808  45.807  1.00  0.00    -0.384 N 
HETATM    7  C6  UNL     1      32.288   5.646  47.244  1.00  0.00     0.077 C 
HETATM    8  C7  UNL     1      33.643   5.920  47.844  1.00  0.00     0.059 C 
HETATM    9  C8  UNL     1      33.584   6.232  49.331  1.00  0.00     0.144 C 
HETATM   10  N2  UNL     1      32.336   5.764  49.907  1.00  0.00    -0.314 N 
HETATM   11  N3  UNL     1      31.318   6.460  49.253  1.00  0.00    -0.186 NA
HETATM   12  C9  UNL     1      31.268   6.424  47.965  1.00  0.00     0.061 C 
HETATM   13  C19 UNL     1      31.990   4.147  47.454  1.00  0.00     0.071 C 
HETATM   14  H7  UNL     1      31.514   6.231  45.166  1.00  0.00     0.160 HD
HETATM   15  H12 UNL     1      32.293   5.032  50.673  1.00  0.00     0.182 HD
ENDROOT
BRANCH  12  16
HETATM   16  C10 UNL     1      30.137   7.233  47.460  1.00  0.00     0.069 C 
BRANCH  16  17
HETATM   17  C11 UNL     1      28.823   6.890  48.137  1.00  0.00    -0.011 A 
HETATM   18  C12 UNL     1      28.451   8.186  48.358  1.00  0.00     0.129 A 
HETATM   19  C13 UNL     1      27.281   7.691  48.956  1.00  0.00    -0.098 A 
HETATM   20  C14 UNL     1      26.307   7.256  49.453  1.00  0.00    -0.084 A 
HETATM   21  C15 UNL     1      25.144   6.709  50.046  1.00  0.00     0.241 A 
HETATM   22  N4  UNL     1      25.255   5.230  49.955  1.00  0.00    -0.290 NA
HETATM   23  C16 UNL     1      26.356   4.790  49.373  1.00  0.00     0.111 A 
HETATM   24  C17 UNL     1      27.625   4.735  48.712  1.00  0.00     0.015 A 
HETATM   25  C18 UNL     1      28.629   5.388  48.204  1.00  0.00    -0.019 A 
ENDBRANCH  16  17
ENDBRANCH  12  16
TORSDOF 2
ENDMDL
MODEL 9
REMARK VINA RESULT:      -8.2      3.910      7.390
REMARK  2 active torsions:
REMARK  status: ('A' for Active; 'I' for Inactive)
REMARK    1  A    between atoms: C9_12  and  C10_13 
REMARK    2  A    between atoms: C10_13  and  C11_14 
ROOT
HETATM    1  C1  UNL     1      24.589   8.087  50.371  1.00  0.00     0.043 C 
HETATM    2  C2  UNL     1      24.130   6.826  49.681  1.00  0.00    -0.081 C 
HETATM    3  C3  UNL     1      23.406   7.206  48.610  1.00  0.00     0.004 C 
HETATM    4  C4  UNL     1      22.807   6.188  47.715  1.00  0.00     0.017 C 
HETATM    5  C5  UNL     1      22.804   4.842  47.825  1.00  0.00     0.084 C 
HETATM    6  N1  UNL     1      23.407   4.062  48.883  1.00  0.00    -0.384 N 
HETATM    7  C6  UNL     1      23.448   4.484  50.266  1.00  0.00     0.077 C 
HETATM    8  C7  UNL     1      22.172   5.138  50.728  1.00  0.00     0.059 C 
HETATM    9  C8  UNL     1      22.015   5.136  52.241  1.00  0.00     0.144 C 
HETATM   10  N2  UNL     1      23.296   4.921  52.891  1.00  0.00    -0.314 N 
HETATM   11  N3  UNL     1      23.740   3.665  52.476  1.00  0.00    -0.186 NA
HETATM   12  C9  UNL     1      23.824   3.422  51.212  1.00  0.00     0.061 C 
HETATM   13  C19 UNL     1      24.550   5.564  50.290  1.00  0.00     0.071 C 
HETATM   14  H7  UNL     1      23.781   3.184  48.406  1.00  0.00     0.160 HD
HETATM   15  H12 UNL     1      23.738   5.632  53.542  1.00  0.00     0.182 HD
ENDROOT
BRANCH  12  16
HETATM   16  C10 UNL     1      24.293   2.039  50.973  1.00  0.00     0.069 C 
BRANCH  16  17
HETATM   17  C11 UNL     1      25.385   1.615  51.938  1.00  0.00    -0.011 A 
HETATM   18  C12 UNL     1      26.374   2.342  51.339  1.00  0.00     0.129 A 
HETATM   19  C13 UNL     1      27.253   1.849  52.317  1.00  0.00    -0.098 A 
HETATM   20  C14 UNL     1      27.973   1.425  53.146  1.00  0.00    -0.084 A 
HETATM   21  C15 UNL     1      28.820   0.903  54.153  1.00  0.00     0.241 A 
HETATM   22  N4  UNL     1      27.989   0.023  55.016  1.00  0.00    -0.290 NA
HETATM   23  C16 UNL     1      26.720  -0.064  54.663  1.00  0.00     0.111 A 
HETATM   24  C17 UNL     1      25.477   0.110  53.972  1.00  0.00     0.015 A 
HETATM   25  C18 UNL     1      24.835   0.671  52.990  1.00  0.00    -0.019 A 
ENDBRANCH  16  17
ENDBRANCH  12  16
TORSDOF 2
ENDMDL
