MODEL 1
REMARK VINA RESULT:      -8.1      0.000      0.000
REMARK  1 active torsions:
REMARK  status: ('A' for Active; 'I' for Inactive)
REMARK    1  A    between atoms: C2_2  and  N1_3 
ROOT
HETATM    1  N1  UNL     1      27.281   1.686  53.483  1.00  0.00    -0.383 N 
HETATM    2  C3  UNL     1      27.091   0.587  54.458  1.00  0.00     0.142 C 
HETATM    3  C4  UNL     1      25.682   0.177  54.266  1.00  0.00     0.142 C 
HETATM    4  N2  UNL     1      25.221  -0.931  55.074  1.00  0.00    -0.359 N 
HETATM    5  C5  UNL     1      23.834  -1.225  54.812  1.00  0.00     0.221 C 
HETATM    6  O1  UNL     1      23.526  -0.371  53.942  1.00  0.00    -0.273 OA
HETATM    7  C6  UNL     1      22.383  -1.654  54.646  1.00  0.00     0.131 C 
HETATM    8  C7  UNL     1      21.866  -0.706  53.653  1.00  0.00     0.007 C 
HETATM    9  C8  UNL     1      20.973   0.213  53.591  1.00  0.00     0.001 C 
HETATM   10  C9  UNL     1      20.197   0.460  54.804  1.00  0.00     0.068 C 
HETATM   11  N3  UNL     1      20.424   1.170  52.722  1.00  0.00    -0.372 N 
HETATM   12  C10 UNL     1      20.201   2.540  52.626  1.00  0.00     0.074 C 
HETATM   13  C11 UNL     1      20.417   2.897  51.401  1.00  0.00     0.040 A 
HETATM   14  C12 UNL     1      20.628   2.026  50.457  1.00  0.00     0.069 A 
HETATM   15  C13 UNL     1      21.655   1.480  49.667  1.00  0.00     0.150 A 
HETATM   16  O2  UNL     1      21.732   0.630  48.714  1.00  0.00    -0.296 OA
HETATM   17  C14 UNL     1      21.917   2.472  50.714  1.00  0.00     0.060 A 
HETATM   18  C15 UNL     1      23.000   3.102  51.237  1.00  0.00     0.050 C 
HETATM   19  C16 UNL     1      24.461   3.216  51.052  1.00  0.00     0.200 C 
HETATM   20  F1  UNL     1      24.721   4.528  50.620  1.00  0.00    -0.245 F 
HETATM   21  C17 UNL     1      25.207   2.885  52.257  1.00  0.00     0.034 C 
HETATM   22  C18 UNL     1      26.329   2.183  52.519  1.00  0.00     0.002 C 
HETATM   23  C19 UNL     1      26.741   1.742  51.178  1.00  0.00     0.067 C 
HETATM   24  H10 UNL     1      24.950  -1.730  55.680  1.00  0.00     0.162 HD
HETATM   25  H17 UNL     1      20.161   0.438  52.036  1.00  0.00     0.164 HD
ENDROOT
BRANCH   1  26
HETATM   26  C2  UNL     1      28.572   2.338  53.463  1.00  0.00     0.118 C 
HETATM   27  C1  UNL     1      29.497   1.873  54.534  1.00  0.00     0.026 C 
ENDBRANCH   1  26
TORSDOF 1
ENDMDL
MODEL 2
REMARK VINA RESULT:      -8.0      2.624      4.713
REMARK  1 active torsions:
REMARK  status: ('A' for Active; 'I' for Inactive)
REMARK    1  A    between atoms: C2_2  and  N1_3 
ROOT
HETATM    1  N1  UNL     1      27.103   1.040  53.228  1.00  0.00    -0.383 N 
HETATM    2  C3  UNL     1      27.741   2.045  52.347  1.00  0.00     0.142 C 
HETATM    3  C4  UNL     1      26.618   2.584  51.546  1.00  0.00     0.142 C 
HETATM    4  N2  UNL     1      26.946   3.637  50.610  1.00  0.00    -0.359 N 
HETATM    5  C5  UNL     1      25.779   4.065  49.880  1.00  0.00     0.221 C 
HETATM    6  O1  UNL     1      24.871   3.332  50.347  1.00  0.00    -0.273 OA
HETATM    7  C6  UNL     1      24.645   4.624  49.032  1.00  0.00     0.131 C 
HETATM    8  C7  UNL     1      23.489   3.827  49.453  1.00  0.00     0.007 C 
HETATM    9  C8  UNL     1      22.666   2.992  48.930  1.00  0.00     0.001 C 
HETATM   10  C9  UNL     1      22.852   2.685  47.514  1.00  0.00     0.068 C 
HETATM   11  N3  UNL     1      21.566   2.176  49.238  1.00  0.00    -0.372 N 
HETATM   12  C10 UNL     1      21.163   0.846  49.196  1.00  0.00     0.074 C 
HETATM   13  C11 UNL     1      20.475   0.599  50.263  1.00  0.00     0.040 A 
HETATM   14  C12 UNL     1      20.123   1.543  51.089  1.00  0.00     0.069 A 
HETATM   15  C13 UNL     1      20.440   2.083  52.348  1.00  0.00     0.150 A 
HETATM   16  O2  UNL     1      19.981   3.016  53.092  1.00  0.00    -0.296 OA
HETATM   17  C14 UNL     1      21.195   0.971  51.762  1.00  0.00     0.060 A 
HETATM   18  C15 UNL     1      22.263   0.207  52.104  1.00  0.00     0.050 C 
HETATM   19  C16 UNL     1      23.215  -0.005  53.213  1.00  0.00     0.200 C 
HETATM   20  F1  UNL     1      22.958  -1.282  53.740  1.00  0.00    -0.245 F 
HETATM   21  C17 UNL     1      24.602   0.141  52.799  1.00  0.00     0.034 C 
HETATM   22  C18 UNL     1      25.699   0.721  53.330  1.00  0.00     0.002 C 
HETATM   23  C19 UNL     1      25.183   1.263  54.596  1.00  0.00     0.067 C 
HETATM   24  H10 UNL     1      27.244   4.389  49.958  1.00  0.00     0.162 HD
HETATM   25  H17 UNL     1      21.013   2.993  49.560  1.00  0.00     0.164 HD
ENDROOT
BRANCH   1  26
HETATM   26  C2  UNL     1      27.968   0.292  54.114  1.00  0.00     0.118 C 
HETATM   27  C1  UNL     1      28.681  -0.833  53.449  1.00  0.00     0.026 C 
ENDBRANCH   1  26
TORSDOF 1
ENDMDL
MODEL 3
REMARK VINA RESULT:      -7.6      2.681      5.884
REMARK  1 active torsions:
REMARK  status: ('A' for Active; 'I' for Inactive)
REMARK    1  A    between atoms: C2_2  and  N1_3 
ROOT
HETATM    1  N1  UNL     1      22.696   4.732  48.977  1.00  0.00    -0.383 N 
HETATM    2  C3  UNL     1      21.383   4.431  49.591  1.00  0.00     0.142 C 
HETATM    3  C4  UNL     1      21.706   3.490  50.687  1.00  0.00     0.142 C 
HETATM    4  N2  UNL     1      20.595   3.050  51.503  1.00  0.00    -0.359 N 
HETATM    5  C5  UNL     1      21.031   2.127  52.521  1.00  0.00     0.221 C 
HETATM    6  O1  UNL     1      22.268   2.041  52.311  1.00  0.00    -0.273 OA
HETATM    7  C6  UNL     1      21.335   1.144  53.643  1.00  0.00     0.131 C 
HETATM    8  C7  UNL     1      22.777   0.918  53.508  1.00  0.00     0.007 C 
HETATM    9  C8  UNL     1      23.568  -0.059  53.250  1.00  0.00     0.001 C 
HETATM   10  C9  UNL     1      22.947  -1.360  53.008  1.00  0.00     0.068 C 
HETATM   11  N3  UNL     1      24.925  -0.375  53.079  1.00  0.00    -0.372 N 
HETATM   12  C10 UNL     1      25.798  -0.920  52.143  1.00  0.00     0.074 C 
HETATM   13  C11 UNL     1      26.906  -0.255  52.191  1.00  0.00     0.040 A 
HETATM   14  C12 UNL     1      27.134   0.638  53.111  1.00  0.00     0.069 A 
HETATM   15  C13 UNL     1      27.187   2.029  53.312  1.00  0.00     0.150 A 
HETATM   16  O2  UNL     1      27.470   2.810  54.284  1.00  0.00    -0.296 OA
HETATM   17  C14 UNL     1      26.811   1.438  52.023  1.00  0.00     0.060 A 
HETATM   18  C15 UNL     1      26.432   1.885  50.799  1.00  0.00     0.050 C 
HETATM   19  C16 UNL     1      26.236   3.140  50.045  1.00  0.00     0.200 C 
HETATM   20  F1  UNL     1      27.212   3.171  49.035  1.00  0.00    -0.245 F 
HETATM   21  C17 UNL     1      24.892   3.266  49.504  1.00  0.00     0.034 C 
HETATM   22  C18 UNL     1      23.995   4.270  49.404  1.00  0.00     0.002 C 
HETATM   23  C19 UNL     1      24.714   5.392  50.027  1.00  0.00     0.067 C 
HETATM   24  H10 UNL     1      19.759   2.773  52.052  1.00  0.00     0.162 HD
HETATM   25  H17 UNL     1      25.153  -0.038  54.033  1.00  0.00     0.164 HD
ENDROOT
BRANCH   1  26
HETATM   26  C2  UNL     1      22.705   5.607  47.825  1.00  0.00     0.118 C 
HETATM   27  C1  UNL     1      21.939   6.868  48.023  1.00  0.00     0.026 C 
ENDBRANCH   1  26
TORSDOF 1
ENDMDL
MODEL 4
REMARK VINA RESULT:      -7.5      2.674      6.236
REMARK  1 active torsions:
REMARK  status: ('A' for Active; 'I' for Inactive)
REMARK    1  A    between atoms: C2_2  and  N1_3 
ROOT
HETATM    1  N1  UNL     1      19.899   1.020  50.673  1.00  0.00    -0.383 N 
HETATM    2  C3  UNL     1      20.342   0.153  51.788  1.00  0.00     0.142 C 
HETATM    3  C4  UNL     1      21.681   0.675  52.140  1.00  0.00     0.142 C 
HETATM    4  N2  UNL     1      22.349   0.032  53.250  1.00  0.00    -0.359 N 
HETATM    5  C5  UNL     1      23.648   0.614  53.484  1.00  0.00     0.221 C 
HETATM    6  O1  UNL     1      23.721   1.502  52.597  1.00  0.00    -0.273 OA
HETATM    7  C6  UNL     1      25.034   1.122  53.854  1.00  0.00     0.131 C 
HETATM    8  C7  UNL     1      25.280   2.173  52.862  1.00  0.00     0.007 C 
HETATM    9  C8  UNL     1      26.106   2.408  51.908  1.00  0.00     0.001 C 
HETATM   10  C9  UNL     1      27.131   1.396  51.664  1.00  0.00     0.068 C 
HETATM   11  N3  UNL     1      26.411   3.346  50.910  1.00  0.00    -0.372 N 
HETATM   12  C10 UNL     1      26.563   3.444  49.531  1.00  0.00     0.074 C 
HETATM   13  C11 UNL     1      26.062   4.575  49.150  1.00  0.00     0.040 A 
HETATM   14  C12 UNL     1      25.666   5.475  50.005  1.00  0.00     0.069 A 
HETATM   15  C13 UNL     1      24.502   6.027  50.568  1.00  0.00     0.150 A 
HETATM   16  O2  UNL     1      24.235   6.964  51.396  1.00  0.00    -0.296 OA
HETATM   17  C14 UNL     1      24.458   4.915  49.614  1.00  0.00     0.060 A 
HETATM   18  C15 UNL     1      23.505   4.138  49.039  1.00  0.00     0.050 C 
HETATM   19  C16 UNL     1      22.038   3.979  48.975  1.00  0.00     0.200 C 
HETATM   20  F1  UNL     1      21.645   4.296  47.663  1.00  0.00    -0.245 F 
HETATM   21  C17 UNL     1      21.598   2.648  49.365  1.00  0.00     0.034 C 
HETATM   22  C18 UNL     1      20.589   2.159  50.115  1.00  0.00     0.002 C 
HETATM   23  C19 UNL     1      19.894   3.385  50.538  1.00  0.00     0.067 C 
HETATM   24  H10 UNL     1      22.776  -0.469  54.054  1.00  0.00     0.162 HD
HETATM   25  H17 UNL     1      26.532   4.098  51.613  1.00  0.00     0.164 HD
ENDROOT
BRANCH   1  26
HETATM   26  C2  UNL     1      18.619   0.723  50.069  1.00  0.00     0.118 C 
HETATM   27  C1  UNL     1      17.591   0.255  51.040  1.00  0.00     0.026 C 
ENDBRANCH   1  26
TORSDOF 1
ENDMDL
MODEL 5
REMARK VINA RESULT:      -7.4      3.380      6.775
REMARK  1 active torsions:
REMARK  status: ('A' for Active; 'I' for Inactive)
REMARK    1  A    between atoms: C2_2  and  N1_3 
ROOT
HETATM    1  N1  UNL     1      20.600   0.954  52.293  1.00  0.00    -0.383 N 
HETATM    2  C3  UNL     1      19.679   0.868  51.137  1.00  0.00     0.142 C 
HETATM    3  C4  UNL     1      20.344   1.675  50.088  1.00  0.00     0.142 C 
HETATM    4  N2  UNL     1      19.676   1.735  48.806  1.00  0.00    -0.359 N 
HETATM    5  C5  UNL     1      20.407   2.561  47.878  1.00  0.00     0.221 C 
HETATM    6  O1  UNL     1      21.394   2.940  48.557  1.00  0.00    -0.273 OA
HETATM    7  C6  UNL     1      21.061   3.399  46.788  1.00  0.00     0.131 C 
HETATM    8  C7  UNL     1      22.246   3.947  47.455  1.00  0.00     0.007 C 
HETATM    9  C8  UNL     1      22.707   5.099  47.782  1.00  0.00     0.001 C 
HETATM   10  C9  UNL     1      21.889   6.258  47.432  1.00  0.00     0.068 C 
HETATM   11  N3  UNL     1      23.791   5.720  48.423  1.00  0.00    -0.372 N 
HETATM   12  C10 UNL     1      24.072   6.578  49.481  1.00  0.00     0.074 C 
HETATM   13  C11 UNL     1      25.156   6.167  50.056  1.00  0.00     0.040 A 
HETATM   14  C12 UNL     1      25.883   5.211  49.551  1.00  0.00     0.069 A 
HETATM   15  C13 UNL     1      26.192   3.850  49.722  1.00  0.00     0.150 A 
HETATM   16  O2  UNL     1      26.977   3.007  49.168  1.00  0.00    -0.296 OA
HETATM   17  C14 UNL     1      25.205   4.540  50.560  1.00  0.00     0.060 A 
HETATM   18  C15 UNL     1      24.373   4.217  51.582  1.00  0.00     0.050 C 
HETATM   19  C16 UNL     1      24.014   3.082  52.456  1.00  0.00     0.200 C 
HETATM   20  F1  UNL     1      24.424   3.418  53.758  1.00  0.00    -0.245 F 
HETATM   21  C17 UNL     1      22.597   2.756  52.402  1.00  0.00     0.034 C 
HETATM   22  C18 UNL     1      21.884   1.612  52.351  1.00  0.00     0.002 C 
HETATM   23  C19 UNL     1      22.939   0.587  52.366  1.00  0.00     0.067 C 
HETATM   24  H10 UNL     1      19.151   1.738  47.911  1.00  0.00     0.162 HD
HETATM   25  H17 UNL     1      24.465   5.296  47.758  1.00  0.00     0.164 HD
ENDROOT
BRANCH   1  26
HETATM   26  C2  UNL     1      20.196   0.292  53.514  1.00  0.00     0.118 C 
HETATM   27  C1  UNL     1      19.176  -0.774  53.309  1.00  0.00     0.026 C 
ENDBRANCH   1  26
TORSDOF 1
ENDMDL
MODEL 6
REMARK VINA RESULT:      -7.4      1.653      2.226
REMARK  1 active torsions:
REMARK  status: ('A' for Active; 'I' for Inactive)
REMARK    1  A    between atoms: C2_2  and  N1_3 
ROOT
HETATM    1  N1  UNL     1      26.381   0.576  53.600  1.00  0.00    -0.383 N 
HETATM    2  C3  UNL     1      25.441  -0.313  54.320  1.00  0.00     0.142 C 
HETATM    3  C4  UNL     1      24.149  -0.103  53.631  1.00  0.00     0.142 C 
HETATM    4  N2  UNL     1      23.033  -0.893  54.105  1.00  0.00    -0.359 N 
HETATM    5  C5  UNL     1      21.830  -0.587  53.372  1.00  0.00     0.221 C 
HETATM    6  O1  UNL     1      22.213   0.291  52.558  1.00  0.00    -0.273 OA
HETATM    7  C6  UNL     1      20.485  -0.376  52.691  1.00  0.00     0.131 C 
HETATM    8  C7  UNL     1      20.770   0.672  51.705  1.00  0.00     0.007 C 
HETATM    9  C8  UNL     1      20.404   1.878  51.465  1.00  0.00     0.001 C 
HETATM   10  C9  UNL     1      19.426   2.462  52.379  1.00  0.00     0.068 C 
HETATM   11  N3  UNL     1      20.623   2.950  50.586  1.00  0.00    -0.372 N 
HETATM   12  C10 UNL     1      21.018   4.284  50.587  1.00  0.00     0.074 C 
HETATM   13  C11 UNL     1      21.768   4.483  49.552  1.00  0.00     0.040 A 
HETATM   14  C12 UNL     1      21.925   3.575  48.631  1.00  0.00     0.069 A 
HETATM   15  C13 UNL     1      22.850   2.627  48.161  1.00  0.00     0.150 A 
HETATM   16  O2  UNL     1      22.905   1.795  47.191  1.00  0.00    -0.296 OA
HETATM   17  C14 UNL     1      23.108   3.450  49.347  1.00  0.00     0.060 A 
HETATM   18  C15 UNL     1      24.098   3.584  50.265  1.00  0.00     0.050 C 
HETATM   19  C16 UNL     1      25.446   3.073  50.583  1.00  0.00     0.200 C 
HETATM   20  F1  UNL     1      26.343   4.142  50.420  1.00  0.00    -0.245 F 
HETATM   21  C17 UNL     1      25.529   2.496  51.916  1.00  0.00     0.034 C 
HETATM   22  C18 UNL     1      26.108   1.397  52.445  1.00  0.00     0.002 C 
HETATM   23  C19 UNL     1      26.744   0.785  51.269  1.00  0.00     0.067 C 
HETATM   24  H10 UNL     1      22.273  -1.487  54.490  1.00  0.00     0.162 HD
HETATM   25  H17 UNL     1      20.345   2.375  49.769  1.00  0.00     0.164 HD
ENDROOT
BRANCH   1  26
HETATM   26  C2  UNL     1      27.745   0.629  54.081  1.00  0.00     0.118 C 
HETATM   27  C1  UNL     1      28.525  -0.610  53.810  1.00  0.00     0.026 C 
ENDBRANCH   1  26
TORSDOF 1
ENDMDL
MODEL 7
REMARK VINA RESULT:      -7.3      3.543      5.781
REMARK  1 active torsions:
REMARK  status: ('A' for Active; 'I' for Inactive)
REMARK    1  A    between atoms: C2_2  and  N1_3 
ROOT
HETATM    1  N1  UNL     1      23.205   0.708  53.071  1.00  0.00    -0.383 N 
HETATM    2  C3  UNL     1      24.178   1.823  53.025  1.00  0.00     0.142 C 
HETATM    3  C4  UNL     1      23.416   2.940  52.425  1.00  0.00     0.142 C 
HETATM    4  N2  UNL     1      24.118   4.199  52.294  1.00  0.00    -0.359 N 
HETATM    5  C5  UNL     1      23.281   5.200  51.682  1.00  0.00     0.221 C 
HETATM    6  O1  UNL     1      22.206   4.581  51.478  1.00  0.00    -0.273 OA
HETATM    7  C6  UNL     1      22.524   6.360  51.050  1.00  0.00     0.131 C 
HETATM    8  C7  UNL     1      21.222   5.771  50.723  1.00  0.00     0.007 C 
HETATM    9  C8  UNL     1      20.523   5.529  49.674  1.00  0.00     0.001 C 
HETATM   10  C9  UNL     1      21.106   5.916  48.392  1.00  0.00     0.068 C 
HETATM   11  N3  UNL     1      19.307   4.965  49.256  1.00  0.00    -0.372 N 
HETATM   12  C10 UNL     1      18.808   3.970  48.422  1.00  0.00     0.074 C 
HETATM   13  C11 UNL     1      17.804   3.412  49.016  1.00  0.00     0.040 A 
HETATM   14  C12 UNL     1      17.309   3.886  50.124  1.00  0.00     0.069 A 
HETATM   15  C13 UNL     1      17.273   3.647  51.509  1.00  0.00     0.150 A 
HETATM   16  O2  UNL     1      16.701   4.179  52.522  1.00  0.00    -0.296 OA
HETATM   17  C14 UNL     1      18.060   2.816  50.592  1.00  0.00     0.060 A 
HETATM   18  C15 UNL     1      18.890   1.747  50.686  1.00  0.00     0.050 C 
HETATM   19  C16 UNL     1      19.428   0.795  51.679  1.00  0.00     0.200 C 
HETATM   20  F1  UNL     1      18.897  -0.469  51.369  1.00  0.00    -0.245 F 
HETATM   21  C17 UNL     1      20.883   0.778  51.711  1.00  0.00     0.034 C 
HETATM   22  C18 UNL     1      21.814   0.736  52.687  1.00  0.00     0.002 C 
HETATM   23  C19 UNL     1      20.988   0.699  53.903  1.00  0.00     0.067 C 
HETATM   24  H10 UNL     1      24.674   5.073  52.228  1.00  0.00     0.162 HD
HETATM   25  H17 UNL     1      18.765   5.628  49.841  1.00  0.00     0.164 HD
ENDROOT
BRANCH   1  26
HETATM   26  C2  UNL     1      23.676  -0.564  53.575  1.00  0.00     0.118 C 
HETATM   27  C1  UNL     1      25.085  -0.534  54.057  1.00  0.00     0.026 C 
ENDBRANCH   1  26
TORSDOF 1
ENDMDL
MODEL 8
REMARK VINA RESULT:      -7.2      3.049      6.370
REMARK  1 active torsions:
REMARK  status: ('A' for Active; 'I' for Inactive)
REMARK    1  A    between atoms: C2_2  and  N1_3 
ROOT
HETATM    1  N1  UNL     1      21.464   3.524  46.849  1.00  0.00    -0.383 N 
HETATM    2  C3  UNL     1      20.141   2.899  47.079  1.00  0.00     0.142 C 
HETATM    3  C4  UNL     1      20.184   2.481  48.499  1.00  0.00     0.142 C 
HETATM    4  N2  UNL     1      18.984   1.866  49.022  1.00  0.00    -0.359 N 
HETATM    5  C5  UNL     1      19.153   1.487  50.403  1.00  0.00     0.221 C 
HETATM    6  O1  UNL     1      20.332   1.846  50.649  1.00  0.00    -0.273 OA
HETATM    7  C6  UNL     1      19.178   1.032  51.855  1.00  0.00     0.131 C 
HETATM    8  C7  UNL     1      20.539   1.367  52.287  1.00  0.00     0.007 C 
HETATM    9  C8  UNL     1      21.584   0.750  52.703  1.00  0.00     0.001 C 
HETATM   10  C9  UNL     1      21.490  -0.704  52.812  1.00  0.00     0.068 C 
HETATM   11  N3  UNL     1      22.910   0.964  53.112  1.00  0.00    -0.372 N 
HETATM   12  C10 UNL     1      24.212   0.586  52.799  1.00  0.00     0.074 C 
HETATM   13  C11 UNL     1      24.975   1.622  52.931  1.00  0.00     0.040 A 
HETATM   14  C12 UNL     1      24.539   2.738  53.443  1.00  0.00     0.069 A 
HETATM   15  C13 UNL     1      24.138   4.037  53.082  1.00  0.00     0.150 A 
HETATM   16  O2  UNL     1      23.756   5.088  53.701  1.00  0.00    -0.296 OA
HETATM   17  C14 UNL     1      24.529   3.034  52.086  1.00  0.00     0.060 A 
HETATM   18  C15 UNL     1      24.622   2.961  50.734  1.00  0.00     0.050 C 
HETATM   19  C16 UNL     1      24.459   3.795  49.526  1.00  0.00     0.200 C 
HETATM   20  F1  UNL     1      25.733   3.947  48.953  1.00  0.00    -0.245 F 
HETATM   21  C17 UNL     1      23.504   3.236  48.582  1.00  0.00     0.034 C 
HETATM   22  C18 UNL     1      22.516   3.741  47.814  1.00  0.00     0.002 C 
HETATM   23  C19 UNL     1      22.574   5.175  48.135  1.00  0.00     0.067 C 
HETATM   24  H10 UNL     1      18.094   1.433  49.339  1.00  0.00     0.162 HD
HETATM   25  H17 UNL     1      22.603   1.598  53.874  1.00  0.00     0.164 HD
ENDROOT
BRANCH   1  26
HETATM   26  C2  UNL     1      21.749   4.000  45.513  1.00  0.00     0.118 C 
HETATM   27  C1  UNL     1      20.593   3.900  44.580  1.00  0.00     0.026 C 
ENDBRANCH   1  26
TORSDOF 1
ENDMDL
MODEL 9
REMARK VINA RESULT:      -7.1      3.783      5.623
REMARK  1 active torsions:
REMARK  status: ('A' for Active; 'I' for Inactive)
REMARK    1  A    between atoms: C2_2  and  N1_3 
ROOT
HETATM    1  N1  UNL     1      21.456  -0.344  53.783  1.00  0.00    -0.383 N 
HETATM    2  C3  UNL     1      20.576  -1.486  54.121  1.00  0.00     0.142 C 
HETATM    3  C4  UNL     1      19.277  -1.133  53.505  1.00  0.00     0.142 C 
HETATM    4  N2  UNL     1      18.216  -2.108  53.641  1.00  0.00    -0.359 N 
HETATM    5  C5  UNL     1      17.001  -1.644  53.020  1.00  0.00     0.221 C 
HETATM    6  O1  UNL     1      17.327  -0.516  52.572  1.00  0.00    -0.273 OA
HETATM    7  C6  UNL     1      15.650  -1.297  52.410  1.00  0.00     0.131 C 
HETATM    8  C7  UNL     1      15.868   0.044  51.856  1.00  0.00     0.007 C 
HETATM    9  C8  UNL     1      15.419   1.232  52.035  1.00  0.00     0.001 C 
HETATM   10  C9  UNL     1      14.394   1.400  53.063  1.00  0.00     0.068 C 
HETATM   11  N3  UNL     1      15.569   2.555  51.588  1.00  0.00    -0.372 N 
HETATM   12  C10 UNL     1      15.868   3.828  52.062  1.00  0.00     0.074 C 
HETATM   13  C11 UNL     1      16.610   4.420  51.184  1.00  0.00     0.040 A 
HETATM   14  C12 UNL     1      16.839   3.900  50.012  1.00  0.00     0.069 A 
HETATM   15  C13 UNL     1      17.833   3.234  49.273  1.00  0.00     0.150 A 
HETATM   16  O2  UNL     1      17.955   2.795  48.078  1.00  0.00    -0.296 OA
HETATM   17  C14 UNL     1      18.022   3.610  50.678  1.00  0.00     0.060 A 
HETATM   18  C15 UNL     1      18.992   3.481  51.618  1.00  0.00     0.050 C 
HETATM   19  C16 UNL     1      20.371   2.978  51.784  1.00  0.00     0.200 C 
HETATM   20  F1  UNL     1      21.191   4.093  52.028  1.00  0.00    -0.245 F 
HETATM   21  C17 UNL     1      20.483   1.982  52.838  1.00  0.00     0.034 C 
HETATM   22  C18 UNL     1      21.134   0.807  52.973  1.00  0.00     0.002 C 
HETATM   23  C19 UNL     1      21.822   0.682  51.680  1.00  0.00     0.067 C 
HETATM   24  H10 UNL     1      17.498  -2.846  53.772  1.00  0.00     0.162 HD
HETATM   25  H17 UNL     1      15.339   2.282  50.614  1.00  0.00     0.164 HD
ENDROOT
BRANCH   1  26
HETATM   26  C2  UNL     1      22.808  -0.374  54.296  1.00  0.00     0.118 C 
HETATM   27  C1  UNL     1      23.025  -1.397  55.356  1.00  0.00     0.026 C 
ENDBRANCH   1  26
TORSDOF 1
ENDMDL
