MODEL 1
REMARK VINA RESULT:      -8.5      0.000      0.000
REMARK  4 active torsions:
REMARK  status: ('A' for Active; 'I' for Inactive)
REMARK    1  A    between atoms: O1_2  and  C2_3 
REMARK    2  A    between atoms: C6_9  and  N3_10 
REMARK    3  A    between atoms: N3_10  and  C7_11 
REMARK    4  A    between atoms: C7_11  and  C9_13 
ROOT
HETATM    1  C2  UNL     1      19.321  -0.147  52.837  1.00  0.00     0.138 C 
HETATM    2  C3  UNL     1      20.106  -0.914  53.609  1.00  0.00     0.075 C 
HETATM    3  C4  UNL     1      21.543  -0.817  53.846  1.00  0.00     0.075 A 
HETATM    4  N1  UNL     1      21.776  -1.427  55.001  1.00  0.00    -0.241 NA
HETATM    5  C5  UNL     1      23.025  -1.495  55.491  1.00  0.00     0.235 A 
HETATM    6  N2  UNL     1      24.050  -0.951  54.824  1.00  0.00    -0.224 NA
HETATM    7  C6  UNL     1      23.930  -0.319  53.661  1.00  0.00     0.138 A 
HETATM    8  C15 UNL     1      22.642  -0.266  53.186  1.00  0.00     0.040 A 
HETATM    9  C16 UNL     1      22.758   0.446  51.920  1.00  0.00     0.034 C 
HETATM   10  C17 UNL     1      21.971   1.206  51.158  1.00  0.00     0.092 C 
HETATM   11  N4  UNL     1      20.606   1.638  51.317  1.00  0.00    -0.331 N 
HETATM   12  C18 UNL     1      19.504   1.015  51.965  1.00  0.00     0.278 C 
HETATM   13  O2  UNL     1      18.439   1.632  51.712  1.00  0.00    -0.265 OA
HETATM   14  H18 UNL     1      20.461   2.563  50.864  1.00  0.00     0.168 HD
ENDROOT
BRANCH   7  15
HETATM   15  N3  UNL     1      25.068   0.240  53.027  1.00  0.00    -0.366 N 
HETATM   16  H6  UNL     1      25.477   0.394  52.096  1.00  0.00     0.161 HD
BRANCH  15  17
HETATM   17  C7  UNL     1      26.056   0.854  53.885  1.00  0.00     0.112 C 
HETATM   18  C8  UNL     1      26.043   2.360  53.775  1.00  0.00     0.037 C 
BRANCH  17  19
HETATM   19  C9  UNL     1      27.422   0.317  53.771  1.00  0.00    -0.036 A 
HETATM   20  C10 UNL     1      27.419  -0.978  53.237  1.00  0.00     0.009 A 
HETATM   21  C11 UNL     1      28.584  -1.689  53.033  1.00  0.00     0.001 A 
HETATM   22  C12 UNL     1      29.793  -1.122  53.360  1.00  0.00     0.000 A 
HETATM   23  C13 UNL     1      29.798   0.157  53.887  1.00  0.00     0.001 A 
HETATM   24  C14 UNL     1      28.641   0.869  54.092  1.00  0.00     0.009 A 
ENDBRANCH  17  19
ENDBRANCH  15  17
ENDBRANCH   7  15
BRANCH   1  25
HETATM   25  O1  UNL     1      18.011  -0.579  52.890  1.00  0.00    -0.351 OA
HETATM   26  C1  UNL     1      17.614  -1.825  53.415  1.00  0.00     0.210 C 
ENDBRANCH   1  25
TORSDOF 4
ENDMDL
MODEL 2
REMARK VINA RESULT:      -8.0      4.365      6.140
REMARK  4 active torsions:
REMARK  status: ('A' for Active; 'I' for Inactive)
REMARK    1  A    between atoms: O1_2  and  C2_3 
REMARK    2  A    between atoms: C6_9  and  N3_10 
REMARK    3  A    between atoms: N3_10  and  C7_11 
REMARK    4  A    between atoms: C7_11  and  C9_13 
ROOT
HETATM    1  C2  UNL     1      23.563  -0.384  54.017  1.00  0.00     0.138 C 
HETATM    2  C3  UNL     1      22.733   0.230  53.162  1.00  0.00     0.075 C 
HETATM    3  C4  UNL     1      23.023   1.273  52.183  1.00  0.00     0.075 A 
HETATM    4  N1  UNL     1      22.061   1.212  51.271  1.00  0.00    -0.241 NA
HETATM    5  C5  UNL     1      22.063   2.058  50.228  1.00  0.00     0.235 A 
HETATM    6  N2  UNL     1      23.031   2.972  50.092  1.00  0.00    -0.224 NA
HETATM    7  C6  UNL     1      24.040   3.121  50.945  1.00  0.00     0.138 A 
HETATM    8  C15 UNL     1      24.009   2.243  52.001  1.00  0.00     0.040 A 
HETATM    9  C16 UNL     1      25.180   2.598  52.793  1.00  0.00     0.034 C 
HETATM   10  C17 UNL     1      26.001   1.980  53.643  1.00  0.00     0.092 C 
HETATM   11  N4  UNL     1      26.037   0.626  54.133  1.00  0.00    -0.331 N 
HETATM   12  C18 UNL     1      24.989  -0.313  54.343  1.00  0.00     0.278 C 
HETATM   13  O2  UNL     1      25.419  -1.319  54.963  1.00  0.00    -0.265 OA
HETATM   14  H18 UNL     1      27.013   0.342  54.351  1.00  0.00     0.168 HD
ENDROOT
BRANCH   7  15
HETATM   15  N3  UNL     1      25.031   4.108  50.720  1.00  0.00    -0.366 N 
HETATM   16  H6  UNL     1      25.460   4.934  51.157  1.00  0.00     0.161 HD
BRANCH  15  17
HETATM   17  C7  UNL     1      25.780   4.010  49.487  1.00  0.00     0.112 C 
HETATM   18  C8  UNL     1      26.734   2.841  49.496  1.00  0.00     0.037 C 
BRANCH  17  19
HETATM   19  C9  UNL     1      26.446   5.246  49.045  1.00  0.00    -0.036 A 
HETATM   20  C10 UNL     1      27.759   4.997  48.623  1.00  0.00     0.009 A 
HETATM   21  C11 UNL     1      28.583   6.002  48.162  1.00  0.00     0.001 A 
HETATM   22  C12 UNL     1      28.116   7.294  48.108  1.00  0.00     0.000 A 
HETATM   23  C13 UNL     1      26.820   7.543  48.523  1.00  0.00     0.001 A 
HETATM   24  C14 UNL     1      25.995   6.545  48.984  1.00  0.00     0.009 A 
ENDBRANCH  17  19
ENDBRANCH  15  17
ENDBRANCH   7  15
BRANCH   1  25
HETATM   25  O1  UNL     1      22.884  -1.317  54.775  1.00  0.00    -0.351 OA
HETATM   26  C1  UNL     1      21.567  -1.740  54.506  1.00  0.00     0.210 C 
ENDBRANCH   1  25
TORSDOF 4
ENDMDL
MODEL 3
REMARK VINA RESULT:      -8.0      3.362      7.975
REMARK  4 active torsions:
REMARK  status: ('A' for Active; 'I' for Inactive)
REMARK    1  A    between atoms: O1_2  and  C2_3 
REMARK    2  A    between atoms: C6_9  and  N3_10 
REMARK    3  A    between atoms: N3_10  and  C7_11 
REMARK    4  A    between atoms: C7_11  and  C9_13 
ROOT
HETATM    1  C2  UNL     1      26.620   1.675  54.142  1.00  0.00     0.138 C 
HETATM    2  C3  UNL     1      25.789   2.470  53.452  1.00  0.00     0.075 C 
HETATM    3  C4  UNL     1      24.409   2.226  53.040  1.00  0.00     0.075 A 
HETATM    4  N1  UNL     1      23.860   3.417  52.840  1.00  0.00    -0.241 NA
HETATM    5  C5  UNL     1      22.577   3.514  52.454  1.00  0.00     0.235 A 
HETATM    6  N2  UNL     1      21.836   2.416  52.265  1.00  0.00    -0.224 NA
HETATM    7  C6  UNL     1      22.285   1.177  52.436  1.00  0.00     0.138 A 
HETATM    8  C15 UNL     1      23.599   1.110  52.830  1.00  0.00     0.040 A 
HETATM    9  C16 UNL     1      23.866  -0.318  52.936  1.00  0.00     0.034 C 
HETATM   10  C17 UNL     1      24.697  -1.102  53.625  1.00  0.00     0.092 C 
HETATM   11  N4  UNL     1      25.720  -0.802  54.595  1.00  0.00    -0.331 N 
HETATM   12  C18 UNL     1      26.555   0.340  54.741  1.00  0.00     0.278 C 
HETATM   13  O2  UNL     1      27.446   0.126  55.601  1.00  0.00    -0.265 OA
HETATM   14  H18 UNL     1      25.819  -1.584  55.274  1.00  0.00     0.168 HD
ENDROOT
BRANCH   7  15
HETATM   15  N3  UNL     1      21.428   0.067  52.226  1.00  0.00    -0.366 N 
HETATM   16  H6  UNL     1      21.287  -0.734  51.597  1.00  0.00     0.161 HD
BRANCH  15  17
HETATM   17  C7  UNL     1      20.354  -0.114  53.176  1.00  0.00     0.112 C 
HETATM   18  C8  UNL     1      20.701  -1.132  54.234  1.00  0.00     0.037 C 
BRANCH  17  19
HETATM   19  C9  UNL     1      19.025  -0.372  52.595  1.00  0.00    -0.036 A 
HETATM   20  C10 UNL     1      18.891   0.231  51.337  1.00  0.00     0.009 A 
HETATM   21  C11 UNL     1      17.734   0.128  50.595  1.00  0.00     0.001 A 
HETATM   22  C12 UNL     1      16.669  -0.587  51.091  1.00  0.00     0.000 A 
HETATM   23  C13 UNL     1      16.798  -1.183  52.332  1.00  0.00     0.001 A 
HETATM   24  C14 UNL     1      17.949  -1.083  53.075  1.00  0.00     0.009 A 
ENDBRANCH  17  19
ENDBRANCH  15  17
ENDBRANCH   7  15
BRANCH   1  25
HETATM   25  O1  UNL     1      27.844   2.286  54.322  1.00  0.00    -0.351 OA
HETATM   26  C1  UNL     1      28.772   2.511  53.285  1.00  0.00     0.210 C 
ENDBRANCH   1  25
TORSDOF 4
ENDMDL
MODEL 4
REMARK VINA RESULT:      -7.9      4.594      6.286
REMARK  4 active torsions:
REMARK  status: ('A' for Active; 'I' for Inactive)
REMARK    1  A    between atoms: O1_2  and  C2_3 
REMARK    2  A    between atoms: C6_9  and  N3_10 
REMARK    3  A    between atoms: N3_10  and  C7_11 
REMARK    4  A    between atoms: C7_11  and  C9_13 
ROOT
HETATM    1  C2  UNL     1      24.259   6.379  48.913  1.00  0.00     0.138 C 
HETATM    2  C3  UNL     1      23.643   5.488  49.702  1.00  0.00     0.075 C 
HETATM    3  C4  UNL     1      24.221   4.427  50.522  1.00  0.00     0.075 A 
HETATM    4  N1  UNL     1      23.328   4.150  51.463  1.00  0.00    -0.241 NA
HETATM    5  C5  UNL     1      23.585   3.205  52.382  1.00  0.00     0.235 A 
HETATM    6  N2  UNL     1      24.741   2.532  52.365  1.00  0.00    -0.224 NA
HETATM    7  C6  UNL     1      25.703   2.729  51.469  1.00  0.00     0.138 A 
HETATM    8  C15 UNL     1      25.411   3.700  50.542  1.00  0.00     0.040 A 
HETATM    9  C16 UNL     1      26.581   3.727  49.675  1.00  0.00     0.034 C 
HETATM   10  C17 UNL     1      27.188   4.620  48.891  1.00  0.00     0.092 C 
HETATM   11  N4  UNL     1      26.885   5.995  48.587  1.00  0.00    -0.331 N 
HETATM   12  C18 UNL     1      25.641   6.683  48.536  1.00  0.00     0.278 C 
HETATM   13  O2  UNL     1      25.793   7.830  48.045  1.00  0.00    -0.265 OA
HETATM   14  H18 UNL     1      27.757   6.523  48.379  1.00  0.00     0.168 HD
ENDROOT
BRANCH   7  15
HETATM   15  N3  UNL     1      26.905   1.980  51.530  1.00  0.00    -0.366 N 
HETATM   16  H6  UNL     1      27.670   1.634  50.935  1.00  0.00     0.161 HD
BRANCH  15  17
HETATM   17  C7  UNL     1      27.308   1.498  52.831  1.00  0.00     0.112 C 
HETATM   18  C8  UNL     1      28.368   2.373  53.455  1.00  0.00     0.037 C 
BRANCH  17  19
HETATM   19  C9  UNL     1      27.675   0.074  52.899  1.00  0.00    -0.036 A 
HETATM   20  C10 UNL     1      28.993  -0.094  53.345  1.00  0.00     0.009 A 
HETATM   21  C11 UNL     1      29.563  -1.341  53.492  1.00  0.00     0.001 A 
HETATM   22  C12 UNL     1      28.828  -2.465  53.196  1.00  0.00     0.000 A 
HETATM   23  C13 UNL     1      27.527  -2.302  52.756  1.00  0.00     0.001 A 
HETATM   24  C14 UNL     1      26.955  -1.062  52.608  1.00  0.00     0.009 A 
ENDBRANCH  17  19
ENDBRANCH  15  17
ENDBRANCH   7  15
BRANCH   1  25
HETATM   25  O1  UNL     1      23.341   7.214  48.308  1.00  0.00    -0.351 OA
HETATM   26  C1  UNL     1      21.950   6.992  48.316  1.00  0.00     0.210 C 
ENDBRANCH   1  25
TORSDOF 4
ENDMDL
MODEL 5
REMARK VINA RESULT:      -7.8      1.425      3.157
REMARK  4 active torsions:
REMARK  status: ('A' for Active; 'I' for Inactive)
REMARK    1  A    between atoms: O1_2  and  C2_3 
REMARK    2  A    between atoms: C6_9  and  N3_10 
REMARK    3  A    between atoms: N3_10  and  C7_11 
REMARK    4  A    between atoms: C7_11  and  C9_13 
ROOT
HETATM    1  C2  UNL     1      19.011  -0.397  52.551  1.00  0.00     0.138 C 
HETATM    2  C3  UNL     1      19.689   0.500  51.820  1.00  0.00     0.075 C 
HETATM    3  C4  UNL     1      21.119   0.796  51.818  1.00  0.00     0.075 A 
HETATM    4  N1  UNL     1      21.385   1.358  50.646  1.00  0.00    -0.241 NA
HETATM    5  C5  UNL     1      22.638   1.739  50.348  1.00  0.00     0.235 A 
HETATM    6  N2  UNL     1      23.633   1.559  51.224  1.00  0.00    -0.224 NA
HETATM    7  C6  UNL     1      23.478   1.008  52.423  1.00  0.00     0.138 A 
HETATM    8  C15 UNL     1      22.187   0.629  52.700  1.00  0.00     0.040 A 
HETATM    9  C16 UNL     1      22.258   0.077  54.046  1.00  0.00     0.034 C 
HETATM   10  C17 UNL     1      21.577  -0.816  54.767  1.00  0.00     0.092 C 
HETATM   11  N4  UNL     1      20.428  -1.627  54.455  1.00  0.00    -0.331 N 
HETATM   12  C18 UNL     1      19.335  -1.391  53.576  1.00  0.00     0.278 C 
HETATM   13  O2  UNL     1      18.445  -2.263  53.737  1.00  0.00    -0.265 OA
HETATM   14  H18 UNL     1      20.455  -2.518  54.991  1.00  0.00     0.168 HD
ENDROOT
BRANCH   7  15
HETATM   15  N3  UNL     1      24.590   0.842  53.287  1.00  0.00    -0.366 N 
HETATM   16  H6  UNL     1      24.874   0.967  54.268  1.00  0.00     0.161 HD
BRANCH  15  17
HETATM   17  C7  UNL     1      25.794   0.298  52.702  1.00  0.00     0.112 C 
HETATM   18  C8  UNL     1      25.704  -1.197  52.510  1.00  0.00     0.037 C 
BRANCH  17  19
HETATM   19  C9  UNL     1      27.054   0.682  53.360  1.00  0.00    -0.036 A 
HETATM   20  C10 UNL     1      27.431   1.988  53.020  1.00  0.00     0.009 A 
HETATM   21  C11 UNL     1      28.577   2.572  53.516  1.00  0.00     0.001 A 
HETATM   22  C12 UNL     1      29.386   1.863  54.372  1.00  0.00     0.000 A 
HETATM   23  C13 UNL     1      29.016   0.574  54.710  1.00  0.00     0.001 A 
HETATM   24  C14 UNL     1      27.875  -0.012  54.218  1.00  0.00     0.009 A 
ENDBRANCH  17  19
ENDBRANCH  15  17
ENDBRANCH   7  15
BRANCH   1  25
HETATM   25  O1  UNL     1      17.664  -0.357  52.247  1.00  0.00    -0.351 OA
HETATM   26  C1  UNL     1      17.075   0.610  51.409  1.00  0.00     0.210 C 
ENDBRANCH   1  25
TORSDOF 4
ENDMDL
MODEL 6
REMARK VINA RESULT:      -7.8      2.897      7.845
REMARK  4 active torsions:
REMARK  status: ('A' for Active; 'I' for Inactive)
REMARK    1  A    between atoms: O1_2  and  C2_3 
REMARK    2  A    between atoms: C6_9  and  N3_10 
REMARK    3  A    between atoms: N3_10  and  C7_11 
REMARK    4  A    between atoms: C7_11  and  C9_13 
ROOT
HETATM    1  C2  UNL     1      25.570  -0.526  54.080  1.00  0.00     0.138 C 
HETATM    2  C3  UNL     1      25.396   0.201  52.967  1.00  0.00     0.075 C 
HETATM    3  C4  UNL     1      24.187   0.848  52.468  1.00  0.00     0.075 A 
HETATM    4  N1  UNL     1      24.586   1.816  51.654  1.00  0.00    -0.241 NA
HETATM    5  C5  UNL     1      23.684   2.600  51.040  1.00  0.00     0.235 A 
HETATM    6  N2  UNL     1      22.373   2.417  51.240  1.00  0.00    -0.224 NA
HETATM    7  C6  UNL     1      21.865   1.479  52.032  1.00  0.00     0.138 A 
HETATM    8  C15 UNL     1      22.811   0.694  52.644  1.00  0.00     0.040 A 
HETATM    9  C16 UNL     1      22.033  -0.251  53.434  1.00  0.00     0.034 C 
HETATM   10  C17 UNL     1      22.215  -0.972  54.542  1.00  0.00     0.092 C 
HETATM   11  N4  UNL     1      23.337  -1.093  55.437  1.00  0.00    -0.331 N 
HETATM   12  C18 UNL     1      24.734  -0.970  55.197  1.00  0.00     0.278 C 
HETATM   13  O2  UNL     1      25.387  -1.337  56.206  1.00  0.00    -0.265 OA
HETATM   14  H18 UNL     1      23.013  -1.306  56.402  1.00  0.00     0.168 HD
ENDROOT
BRANCH   7  15
HETATM   15  N3  UNL     1      20.462   1.361  52.198  1.00  0.00    -0.366 N 
HETATM   16  H6  UNL     1      19.695   1.659  52.816  1.00  0.00     0.161 HD
BRANCH  15  17
HETATM   17  C7  UNL     1      19.750   0.596  51.199  1.00  0.00     0.112 C 
HETATM   18  C8  UNL     1      19.373   1.438  50.004  1.00  0.00     0.037 C 
BRANCH  17  19
HETATM   19  C9  UNL     1      18.604  -0.186  51.691  1.00  0.00    -0.036 A 
HETATM   20  C10 UNL     1      17.527  -0.132  50.797  1.00  0.00     0.009 A 
HETATM   21  C11 UNL     1      16.339  -0.790  51.041  1.00  0.00     0.001 A 
HETATM   22  C12 UNL     1      16.193  -1.526  52.193  1.00  0.00     0.000 A 
HETATM   23  C13 UNL     1      17.255  -1.580  53.077  1.00  0.00     0.001 A 
HETATM   24  C14 UNL     1      18.439  -0.926  52.840  1.00  0.00     0.009 A 
ENDBRANCH  17  19
ENDBRANCH  15  17
ENDBRANCH   7  15
BRANCH   1  25
HETATM   25  O1  UNL     1      26.877  -0.960  54.182  1.00  0.00    -0.351 OA
HETATM   26  C1  UNL     1      27.996  -0.105  54.132  1.00  0.00     0.210 C 
ENDBRANCH   1  25
TORSDOF 4
ENDMDL
MODEL 7
REMARK VINA RESULT:      -7.7      3.346      7.683
REMARK  4 active torsions:
REMARK  status: ('A' for Active; 'I' for Inactive)
REMARK    1  A    between atoms: O1_2  and  C2_3 
REMARK    2  A    between atoms: C6_9  and  N3_10 
REMARK    3  A    between atoms: N3_10  and  C7_11 
REMARK    4  A    between atoms: C7_11  and  C9_13 
ROOT
HETATM    1  C2  UNL     1      26.915   1.267  53.861  1.00  0.00     0.138 C 
HETATM    2  C3  UNL     1      25.942   0.501  54.375  1.00  0.00     0.075 C 
HETATM    3  C4  UNL     1      24.571   0.315  53.907  1.00  0.00     0.075 A 
HETATM    4  N1  UNL     1      24.161  -0.848  54.396  1.00  0.00    -0.241 NA
HETATM    5  C5  UNL     1      22.925  -1.297  54.127  1.00  0.00     0.235 A 
HETATM    6  N2  UNL     1      22.090  -0.582  53.363  1.00  0.00    -0.224 NA
HETATM    7  C6  UNL     1      22.397   0.593  52.824  1.00  0.00     0.138 A 
HETATM    8  C15 UNL     1      23.667   1.026  53.118  1.00  0.00     0.040 A 
HETATM    9  C16 UNL     1      23.768   2.314  52.445  1.00  0.00     0.034 C 
HETATM   10  C17 UNL     1      24.743   3.071  51.937  1.00  0.00     0.092 C 
HETATM   11  N4  UNL     1      26.169   2.878  51.862  1.00  0.00    -0.331 N 
HETATM   12  C18 UNL     1      27.058   2.176  52.722  1.00  0.00     0.278 C 
HETATM   13  O2  UNL     1      28.251   2.410  52.406  1.00  0.00    -0.265 OA
HETATM   14  H18 UNL     1      26.557   3.351  51.021  1.00  0.00     0.168 HD
ENDROOT
BRANCH   7  15
HETATM   15  N3  UNL     1      21.456   1.280  52.016  1.00  0.00    -0.366 N 
HETATM   16  H6  UNL     1      21.039   2.210  51.879  1.00  0.00     0.161 HD
BRANCH  15  17
HETATM   17  C7  UNL     1      20.809   0.514  50.975  1.00  0.00     0.112 C 
HETATM   18  C8  UNL     1      21.101   1.066  49.601  1.00  0.00     0.037 C 
BRANCH  17  19
HETATM   19  C9  UNL     1      19.369   0.271  51.164  1.00  0.00    -0.036 A 
HETATM   20  C10 UNL     1      18.627   0.713  50.060  1.00  0.00     0.009 A 
HETATM   21  C11 UNL     1      17.254   0.590  50.004  1.00  0.00     0.001 A 
HETATM   22  C12 UNL     1      16.578   0.019  51.056  1.00  0.00     0.000 A 
HETATM   23  C13 UNL     1      17.308  -0.417  52.147  1.00  0.00     0.001 A 
HETATM   24  C14 UNL     1      18.676  -0.297  52.208  1.00  0.00     0.009 A 
ENDBRANCH  17  19
ENDBRANCH  15  17
ENDBRANCH   7  15
BRANCH   1  25
HETATM   25  O1  UNL     1      28.070   1.159  54.611  1.00  0.00    -0.351 OA
HETATM   26  C1  UNL     1      28.829  -0.023  54.721  1.00  0.00     0.210 C 
ENDBRANCH   1  25
TORSDOF 4
ENDMDL
MODEL 8
REMARK VINA RESULT:      -7.7      4.098      5.557
REMARK  4 active torsions:
REMARK  status: ('A' for Active; 'I' for Inactive)
REMARK    1  A    between atoms: O1_2  and  C2_3 
REMARK    2  A    between atoms: C6_9  and  N3_10 
REMARK    3  A    between atoms: N3_10  and  C7_11 
REMARK    4  A    between atoms: C7_11  and  C9_13 
ROOT
HETATM    1  C2  UNL     1      22.349  -0.106  53.465  1.00  0.00     0.138 C 
HETATM    2  C3  UNL     1      23.676   0.064  53.375  1.00  0.00     0.075 C 
HETATM    3  C4  UNL     1      24.432   0.996  52.544  1.00  0.00     0.075 A 
HETATM    4  N1  UNL     1      25.613   1.149  53.129  1.00  0.00    -0.241 NA
HETATM    5  C5  UNL     1      26.535   1.964  52.590  1.00  0.00     0.235 A 
HETATM    6  N2  UNL     1      26.277   2.633  51.460  1.00  0.00    -0.224 NA
HETATM    7  C6  UNL     1      25.130   2.555  50.794  1.00  0.00     0.138 A 
HETATM    8  C15 UNL     1      24.209   1.712  51.368  1.00  0.00     0.040 A 
HETATM    9  C16 UNL     1      23.062   1.775  50.472  1.00  0.00     0.034 C 
HETATM   10  C17 UNL     1      21.742   1.603  50.569  1.00  0.00     0.092 C 
HETATM   11  N4  UNL     1      20.897   1.264  51.686  1.00  0.00    -0.331 N 
HETATM   12  C18 UNL     1      21.161   0.487  52.848  1.00  0.00     0.278 C 
HETATM   13  O2  UNL     1      20.098   0.273  53.484  1.00  0.00    -0.265 OA
HETATM   14  H18 UNL     1      19.953   1.682  51.568  1.00  0.00     0.168 HD
ENDROOT
BRANCH   7  15
HETATM   15  N3  UNL     1      24.934   3.308  49.609  1.00  0.00    -0.366 N 
HETATM   16  H6  UNL     1      24.666   3.202  48.622  1.00  0.00     0.161 HD
BRANCH  15  17
HETATM   17  C7  UNL     1      25.132   4.736  49.706  1.00  0.00     0.112 C 
HETATM   18  C8  UNL     1      23.907   5.508  49.280  1.00  0.00     0.037 C 
BRANCH  17  19
HETATM   19  C9  UNL     1      26.349   5.257  49.059  1.00  0.00    -0.036 A 
HETATM   20  C10 UNL     1      26.161   6.564  48.593  1.00  0.00     0.009 A 
HETATM   21  C11 UNL     1      27.162   7.265  47.953  1.00  0.00     0.001 A 
HETATM   22  C12 UNL     1      28.388   6.674  47.759  1.00  0.00     0.000 A 
HETATM   23  C13 UNL     1      28.576   5.384  48.218  1.00  0.00     0.001 A 
HETATM   24  C14 UNL     1      27.583   4.682  48.856  1.00  0.00     0.009 A 
ENDBRANCH  17  19
ENDBRANCH  15  17
ENDBRANCH   7  15
BRANCH   1  25
HETATM   25  O1  UNL     1      22.043  -1.099  54.374  1.00  0.00    -0.351 OA
HETATM   26  C1  UNL     1      22.888  -1.481  55.436  1.00  0.00     0.210 C 
ENDBRANCH   1  25
TORSDOF 4
ENDMDL
MODEL 9
REMARK VINA RESULT:      -7.5      4.116      5.373
REMARK  4 active torsions:
REMARK  status: ('A' for Active; 'I' for Inactive)
REMARK    1  A    between atoms: O1_2  and  C2_3 
REMARK    2  A    between atoms: C6_9  and  N3_10 
REMARK    3  A    between atoms: N3_10  and  C7_11 
REMARK    4  A    between atoms: C7_11  and  C9_13 
ROOT
HETATM    1  C2  UNL     1      20.059   0.475  51.409  1.00  0.00     0.138 C 
HETATM    2  C3  UNL     1      21.221   0.678  52.046  1.00  0.00     0.075 C 
HETATM    3  C4  UNL     1      22.341   1.535  51.669  1.00  0.00     0.075 A 
HETATM    4  N1  UNL     1      23.010   1.793  52.785  1.00  0.00    -0.241 NA
HETATM    5  C5  UNL     1      24.103   2.573  52.754  1.00  0.00     0.235 A 
HETATM    6  N2  UNL     1      24.534   3.099  51.601  1.00  0.00    -0.224 NA
HETATM    7  C6  UNL     1      23.941   2.906  50.427  1.00  0.00     0.138 A 
HETATM    8  C15 UNL     1      22.827   2.104  50.492  1.00  0.00     0.040 A 
HETATM    9  C16 UNL     1      22.366   2.025  49.112  1.00  0.00     0.034 C 
HETATM   10  C17 UNL     1      21.206   1.820  48.486  1.00  0.00     0.092 C 
HETATM   11  N4  UNL     1      19.875   1.582  48.982  1.00  0.00    -0.331 N 
HETATM   12  C18 UNL     1      19.428   0.953  50.178  1.00  0.00     0.278 C 
HETATM   13  O2  UNL     1      18.184   0.777  50.142  1.00  0.00    -0.265 OA
HETATM   14  H18 UNL     1      19.166   1.952  48.317  1.00  0.00     0.168 HD
ENDROOT
BRANCH   7  15
HETATM   15  N3  UNL     1      24.456   3.512  49.254  1.00  0.00    -0.366 N 
HETATM   16  H6  UNL     1      24.693   3.301  48.276  1.00  0.00     0.161 HD
BRANCH  15  17
HETATM   17  C7  UNL     1      24.778   4.919  49.335  1.00  0.00     0.112 C 
HETATM   18  C8  UNL     1      23.733   5.777  48.666  1.00  0.00     0.037 C 
BRANCH  17  19
HETATM   19  C9  UNL     1      26.136   5.288  48.904  1.00  0.00    -0.036 A 
HETATM   20  C10 UNL     1      26.186   6.612  48.448  1.00  0.00     0.009 A 
HETATM   21  C11 UNL     1      27.354   7.187  47.993  1.00  0.00     0.001 A 
HETATM   22  C12 UNL     1      28.515   6.450  47.980  1.00  0.00     0.000 A 
HETATM   23  C13 UNL     1      28.469   5.143  48.430  1.00  0.00     0.001 A 
HETATM   24  C14 UNL     1      27.308   4.566  48.884  1.00  0.00     0.009 A 
ENDBRANCH  17  19
ENDBRANCH  15  17
ENDBRANCH   7  15
BRANCH   1  25
HETATM   25  O1  UNL     1      19.269  -0.418  52.106  1.00  0.00    -0.351 OA
HETATM   26  C1  UNL     1      19.468  -0.754  53.460  1.00  0.00     0.210 C 
ENDBRANCH   1  25
TORSDOF 4
ENDMDL
