MODEL 1
REMARK VINA RESULT:      -8.3      0.000      0.000
REMARK  4 active torsions:
REMARK  status: ('A' for Active; 'I' for Inactive)
REMARK    1  A    between atoms: O1_2  and  C2_3 
REMARK    2  A    between atoms: C3_4  and  C4_5 
REMARK    3  A    between atoms: C4_5  and  N1_7 
REMARK    4  A    between atoms: N1_7  and  C5_8 
ROOT
HETATM    1  C2  UNL     1      22.109  -0.033  52.688  1.00  0.00     0.087 A 
HETATM    2  C3  UNL     1      22.578  -0.759  53.684  1.00  0.00     0.009 A 
HETATM    3  C11 UNL     1      21.681  -1.561  54.580  1.00  0.00     0.160 A 
HETATM    4  N2  UNL     1      20.297  -1.442  54.188  1.00  0.00    -0.385 N 
HETATM    5  C12 UNL     1      19.747  -0.676  53.125  1.00  0.00     0.041 A 
HETATM    6  C13 UNL     1      18.383  -0.695  52.925  1.00  0.00     0.030 A 
HETATM    7  C14 UNL     1      17.898   0.062  51.879  1.00  0.00     0.002 A 
HETATM    8  C15 UNL     1      18.778   0.785  51.103  1.00  0.00     0.001 A 
HETATM    9  C16 UNL     1      20.140   0.759  51.360  1.00  0.00     0.016 A 
HETATM   10  C17 UNL     1      20.684   0.020  52.390  1.00  0.00     0.024 A 
HETATM   11  H12 UNL     1      19.658  -2.019  54.806  1.00  0.00     0.160 HD
ENDROOT
BRANCH   2  12
HETATM   12  C4  UNL     1      23.953  -0.973  54.178  1.00  0.00     0.213 C 
HETATM   13 CL1  UNL     1      23.925  -1.375  55.920  1.00  0.00    -0.097 Cl
BRANCH  12  14
HETATM   14  N1  UNL     1      24.868   0.086  53.892  1.00  0.00    -0.369 N 
HETATM   15  H5  UNL     1      24.682   1.085  53.666  1.00  0.00     0.161 HD
BRANCH  14  16
HETATM   16  C5  UNL     1      26.280  -0.156  53.885  1.00  0.00     0.029 A 
HETATM   17  C6  UNL     1      26.919  -1.034  53.034  1.00  0.00     0.032 A 
HETATM   18  C7  UNL     1      28.272  -1.276  53.030  1.00  0.00     0.044 A 
HETATM   19  C8  UNL     1      29.078  -0.621  53.917  1.00  0.00     0.116 A 
HETATM   20  F1  UNL     1      30.397  -0.917  53.846  1.00  0.00    -0.206 F 
HETATM   21  C9  UNL     1      28.510   0.264  54.788  1.00  0.00     0.044 A 
HETATM   22  C10 UNL     1      27.151   0.469  54.751  1.00  0.00     0.032 A 
ENDBRANCH  14  16
ENDBRANCH  12  14
ENDBRANCH   2  12
BRANCH   1  23
HETATM   23  O1  UNL     1      22.839   0.758  51.802  1.00  0.00    -0.355 OA
HETATM   24  C1  UNL     1      22.999   2.116  52.206  1.00  0.00     0.210 C 
ENDBRANCH   1  23
TORSDOF 4
ENDMDL
MODEL 2
REMARK VINA RESULT:      -8.3      1.779      2.465
REMARK  4 active torsions:
REMARK  status: ('A' for Active; 'I' for Inactive)
REMARK    1  A    between atoms: O1_2  and  C2_3 
REMARK    2  A    between atoms: C3_4  and  C4_5 
REMARK    3  A    between atoms: C4_5  and  N1_7 
REMARK    4  A    between atoms: N1_7  and  C5_8 
ROOT
HETATM    1  C2  UNL     1      21.937   0.288  53.201  1.00  0.00     0.087 A 
HETATM    2  C3  UNL     1      23.019   0.793  52.642  1.00  0.00     0.009 A 
HETATM    3  C11 UNL     1      23.022   1.321  51.238  1.00  0.00     0.160 A 
HETATM    4  N2  UNL     1      21.717   1.219  50.631  1.00  0.00    -0.385 N 
HETATM    5  C12 UNL     1      20.526   0.686  51.192  1.00  0.00     0.041 A 
HETATM    6  C13 UNL     1      19.376   0.676  50.431  1.00  0.00     0.030 A 
HETATM    7  C14 UNL     1      18.245   0.150  51.021  1.00  0.00     0.002 A 
HETATM    8  C15 UNL     1      18.317  -0.329  52.311  1.00  0.00     0.001 A 
HETATM    9  C16 UNL     1      19.507  -0.288  53.021  1.00  0.00     0.016 A 
HETATM   10  C17 UNL     1      20.670   0.227  52.485  1.00  0.00     0.024 A 
HETATM   11  H12 UNL     1      21.706   1.606  49.645  1.00  0.00     0.160 HD
ENDROOT
BRANCH   2  12
HETATM   12  C4  UNL     1      24.395   0.964  53.151  1.00  0.00     0.213 C 
HETATM   13 CL1  UNL     1      25.448   1.623  51.865  1.00  0.00    -0.097 Cl
BRANCH  12  14
HETATM   14  N1  UNL     1      24.962  -0.198  53.758  1.00  0.00    -0.369 N 
HETATM   15  H5  UNL     1      24.494  -1.006  54.219  1.00  0.00     0.161 HD
BRANCH  14  16
HETATM   16  C5  UNL     1      26.383  -0.378  53.798  1.00  0.00     0.029 A 
HETATM   17  C6  UNL     1      27.087  -1.225  52.968  1.00  0.00     0.032 A 
HETATM   18  C7  UNL     1      28.449  -1.409  53.010  1.00  0.00     0.044 A 
HETATM   19  C8  UNL     1      29.196  -0.722  53.925  1.00  0.00     0.116 A 
HETATM   20  F1  UNL     1      30.527  -0.961  53.899  1.00  0.00    -0.206 F 
HETATM   21  C9  UNL     1      28.560   0.134  54.777  1.00  0.00     0.044 A 
HETATM   22  C10 UNL     1      27.196   0.281  54.694  1.00  0.00     0.032 A 
ENDBRANCH  14  16
ENDBRANCH  12  14
ENDBRANCH   2  12
BRANCH   1  23
HETATM   23  O1  UNL     1      21.816  -0.241  54.485  1.00  0.00    -0.355 OA
HETATM   24  C1  UNL     1      21.987  -1.654  54.568  1.00  0.00     0.210 C 
ENDBRANCH   1  23
TORSDOF 4
ENDMDL
MODEL 3
REMARK VINA RESULT:      -7.8      3.196      7.246
REMARK  4 active torsions:
REMARK  status: ('A' for Active; 'I' for Inactive)
REMARK    1  A    between atoms: O1_2  and  C2_3 
REMARK    2  A    between atoms: C3_4  and  C4_5 
REMARK    3  A    between atoms: C4_5  and  N1_7 
REMARK    4  A    between atoms: N1_7  and  C5_8 
ROOT
HETATM    1  C2  UNL     1      24.955   0.967  53.233  1.00  0.00     0.087 A 
HETATM    2  C3  UNL     1      24.180   0.075  53.819  1.00  0.00     0.009 A 
HETATM    3  C11 UNL     1      24.700  -0.880  54.852  1.00  0.00     0.160 A 
HETATM    4  N2  UNL     1      26.103  -0.669  55.111  1.00  0.00    -0.385 N 
HETATM    5  C12 UNL     1      26.976   0.277  54.508  1.00  0.00     0.041 A 
HETATM    6  C13 UNL     1      28.298   0.309  54.897  1.00  0.00     0.030 A 
HETATM    7  C14 UNL     1      29.104   1.246  54.285  1.00  0.00     0.002 A 
HETATM    8  C15 UNL     1      28.562   2.085  53.335  1.00  0.00     0.001 A 
HETATM    9  C16 UNL     1      27.223   2.000  52.991  1.00  0.00     0.016 A 
HETATM   10  C17 UNL     1      26.367   1.084  53.569  1.00  0.00     0.024 A 
HETATM   11  H12 UNL     1      26.476  -1.329  55.851  1.00  0.00     0.160 HD
ENDROOT
BRANCH   2  12
HETATM   12  C4  UNL     1      22.745  -0.234  53.656  1.00  0.00     0.213 C 
HETATM   13 CL1  UNL     1      22.222  -1.401  54.905  1.00  0.00    -0.097 Cl
BRANCH  12  14
HETATM   14  N1  UNL     1      22.364  -0.652  52.345  1.00  0.00    -0.369 N 
HETATM   15  H5  UNL     1      22.737  -1.426  51.757  1.00  0.00     0.161 HD
BRANCH  14  16
HETATM   16  C5  UNL     1      21.322   0.032  51.638  1.00  0.00     0.029 A 
HETATM   17  C6  UNL     1      21.484   0.652  50.416  1.00  0.00     0.032 A 
HETATM   18  C7  UNL     1      20.491   1.318  49.738  1.00  0.00     0.044 A 
HETATM   19  C8  UNL     1      19.238   1.394  50.279  1.00  0.00     0.116 A 
HETATM   20  F1  UNL     1      18.320   2.067  49.547  1.00  0.00    -0.206 F 
HETATM   21  C9  UNL     1      19.009   0.801  51.487  1.00  0.00     0.044 A 
HETATM   22  C10 UNL     1      20.038   0.148  52.123  1.00  0.00     0.032 A 
ENDBRANCH  14  16
ENDBRANCH  12  14
ENDBRANCH   2  12
BRANCH   1  23
HETATM   23  O1  UNL     1      24.590   1.893  52.258  1.00  0.00    -0.355 OA
HETATM   24  C1  UNL     1      23.792   2.977  52.730  1.00  0.00     0.210 C 
ENDBRANCH   1  23
TORSDOF 4
ENDMDL
MODEL 4
REMARK VINA RESULT:      -7.8      3.598      7.812
REMARK  4 active torsions:
REMARK  status: ('A' for Active; 'I' for Inactive)
REMARK    1  A    between atoms: O1_2  and  C2_3 
REMARK    2  A    between atoms: C3_4  and  C4_5 
REMARK    3  A    between atoms: C4_5  and  N1_7 
REMARK    4  A    between atoms: N1_7  and  C5_8 
ROOT
HETATM    1  C2  UNL     1      25.205   0.473  52.909  1.00  0.00     0.087 A 
HETATM    2  C3  UNL     1      24.536   1.333  52.166  1.00  0.00     0.009 A 
HETATM    3  C11 UNL     1      25.103   2.666  51.777  1.00  0.00     0.160 A 
HETATM    4  N2  UNL     1      26.437   2.845  52.296  1.00  0.00    -0.385 N 
HETATM    5  C12 UNL     1      27.197   1.951  53.097  1.00  0.00     0.041 A 
HETATM    6  C13 UNL     1      28.462   2.323  53.497  1.00  0.00     0.030 A 
HETATM    7  C14 UNL     1      29.161   1.419  54.270  1.00  0.00     0.002 A 
HETATM    8  C15 UNL     1      28.574   0.216  54.599  1.00  0.00     0.001 A 
HETATM    9  C16 UNL     1      27.296  -0.095  54.163  1.00  0.00     0.016 A 
HETATM   10  C17 UNL     1      26.549   0.768  53.387  1.00  0.00     0.024 A 
HETATM   11  H12 UNL     1      26.852   3.778  52.013  1.00  0.00     0.160 HD
ENDROOT
BRANCH   2  12
HETATM   12  C4  UNL     1      23.186   1.269  51.569  1.00  0.00     0.213 C 
HETATM   13 CL1  UNL     1      23.124   2.258  50.082  1.00  0.00    -0.097 Cl
BRANCH  12  14
HETATM   14  N1  UNL     1      22.117   1.584  52.462  1.00  0.00    -0.369 N 
HETATM   15  H5  UNL     1      22.067   2.299  53.218  1.00  0.00     0.161 HD
BRANCH  14  16
HETATM   16  C5  UNL     1      20.879   0.865  52.397  1.00  0.00     0.029 A 
HETATM   17  C6  UNL     1      20.416   0.016  53.382  1.00  0.00     0.032 A 
HETATM   18  C7  UNL     1      19.234  -0.684  53.320  1.00  0.00     0.044 A 
HETATM   19  C8  UNL     1      18.431  -0.558  52.221  1.00  0.00     0.116 A 
HETATM   20  F1  UNL     1      17.288  -1.280  52.241  1.00  0.00    -0.206 F 
HETATM   21  C9  UNL     1      18.831   0.268  51.210  1.00  0.00     0.044 A 
HETATM   22  C10 UNL     1      20.022   0.944  51.322  1.00  0.00     0.032 A 
ENDBRANCH  14  16
ENDBRANCH  12  14
ENDBRANCH   2  12
BRANCH   1  23
HETATM   23  O1  UNL     1      24.780  -0.782  53.341  1.00  0.00    -0.355 OA
HETATM   24  C1  UNL     1      23.879  -0.761  54.446  1.00  0.00     0.210 C 
ENDBRANCH   1  23
TORSDOF 4
ENDMDL
MODEL 5
REMARK VINA RESULT:      -7.8      4.187      5.580
REMARK  4 active torsions:
REMARK  status: ('A' for Active; 'I' for Inactive)
REMARK    1  A    between atoms: O1_2  and  C2_3 
REMARK    2  A    between atoms: C3_4  and  C4_5 
REMARK    3  A    between atoms: C4_5  and  N1_7 
REMARK    4  A    between atoms: N1_7  and  C5_8 
ROOT
HETATM    1  C2  UNL     1      23.590   1.326  53.058  1.00  0.00     0.087 A 
HETATM    2  C3  UNL     1      23.236   2.417  52.407  1.00  0.00     0.009 A 
HETATM    3  C11 UNL     1      21.809   2.704  52.043  1.00  0.00     0.160 A 
HETATM    4  N2  UNL     1      20.924   1.666  52.513  1.00  0.00    -0.385 N 
HETATM    5  C12 UNL     1      21.257   0.478  53.217  1.00  0.00     0.041 A 
HETATM    6  C13 UNL     1      20.250  -0.395  53.568  1.00  0.00     0.030 A 
HETATM    7  C14 UNL     1      20.623  -1.532  54.253  1.00  0.00     0.002 A 
HETATM    8  C15 UNL     1      21.955  -1.739  54.544  1.00  0.00     0.001 A 
HETATM    9  C16 UNL     1      22.918  -0.819  54.161  1.00  0.00     0.016 A 
HETATM   10  C17 UNL     1      22.605   0.337  53.475  1.00  0.00     0.024 A 
HETATM   11  H12 UNL     1      19.911   1.869  52.274  1.00  0.00     0.160 HD
ENDROOT
BRANCH   2  12
HETATM   12  C4  UNL     1      24.030   3.548  51.887  1.00  0.00     0.213 C 
HETATM   13 CL1  UNL     1      23.496   5.076  52.647  1.00  0.00    -0.097 Cl
BRANCH  12  14
HETATM   14  N1  UNL     1      24.072   3.650  50.463  1.00  0.00    -0.369 N 
HETATM   15  H5  UNL     1      23.411   3.281  49.747  1.00  0.00     0.161 HD
BRANCH  14  16
HETATM   16  C5  UNL     1      25.147   4.341  49.815  1.00  0.00     0.029 A 
HETATM   17  C6  UNL     1      25.086   5.650  49.382  1.00  0.00     0.032 A 
HETATM   18  C7  UNL     1      26.111   6.314  48.750  1.00  0.00     0.044 A 
HETATM   19  C8  UNL     1      27.292   5.667  48.514  1.00  0.00     0.116 A 
HETATM   20  F1  UNL     1      28.247   6.392  47.888  1.00  0.00    -0.206 F 
HETATM   21  C9  UNL     1      27.418   4.369  48.918  1.00  0.00     0.044 A 
HETATM   22  C10 UNL     1      26.363   3.751  49.545  1.00  0.00     0.032 A 
ENDBRANCH  14  16
ENDBRANCH  12  14
ENDBRANCH   2  12
BRANCH   1  23
HETATM   23  O1  UNL     1      24.876   0.948  53.438  1.00  0.00    -0.355 OA
HETATM   24  C1  UNL     1      25.711   0.510  52.369  1.00  0.00     0.210 C 
ENDBRANCH   1  23
TORSDOF 4
ENDMDL
MODEL 6
REMARK VINA RESULT:      -7.6      4.635      6.098
REMARK  4 active torsions:
REMARK  status: ('A' for Active; 'I' for Inactive)
REMARK    1  A    between atoms: O1_2  and  C2_3 
REMARK    2  A    between atoms: C3_4  and  C4_5 
REMARK    3  A    between atoms: C4_5  and  N1_7 
REMARK    4  A    between atoms: N1_7  and  C5_8 
ROOT
HETATM    1  C2  UNL     1      22.421   1.850  51.836  1.00  0.00     0.087 A 
HETATM    2  C3  UNL     1      23.592   2.107  51.288  1.00  0.00     0.009 A 
HETATM    3  C11 UNL     1      24.847   1.406  51.716  1.00  0.00     0.160 A 
HETATM    4  N2  UNL     1      24.585   0.437  52.753  1.00  0.00    -0.385 N 
HETATM    5  C12 UNL     1      23.344   0.125  53.372  1.00  0.00     0.041 A 
HETATM    6  C13 UNL     1      23.313  -0.837  54.358  1.00  0.00     0.030 A 
HETATM    7  C14 UNL     1      22.085  -1.106  54.926  1.00  0.00     0.002 A 
HETATM    8  C15 UNL     1      20.974  -0.415  54.491  1.00  0.00     0.001 A 
HETATM    9  C16 UNL     1      21.076   0.541  53.494  1.00  0.00     0.016 A 
HETATM   10  C17 UNL     1      22.277   0.853  52.888  1.00  0.00     0.024 A 
HETATM   11  H12 UNL     1      25.463  -0.075  53.051  1.00  0.00     0.160 HD
ENDROOT
BRANCH   2  12
HETATM   12  C4  UNL     1      23.990   3.053  50.226  1.00  0.00     0.213 C 
HETATM   13 CL1  UNL     1      23.078   2.712  48.726  1.00  0.00    -0.097 Cl
BRANCH  12  14
HETATM   14  N1  UNL     1      25.396   3.134  49.986  1.00  0.00    -0.369 N 
HETATM   15  H5  UNL     1      26.147   2.440  50.181  1.00  0.00     0.161 HD
BRANCH  14  16
HETATM   16  C5  UNL     1      25.966   4.307  49.394  1.00  0.00     0.029 A 
HETATM   17  C6  UNL     1      25.268   5.466  49.125  1.00  0.00     0.032 A 
HETATM   18  C7  UNL     1      25.809   6.590  48.547  1.00  0.00     0.044 A 
HETATM   19  C8  UNL     1      27.130   6.602  48.200  1.00  0.00     0.116 A 
HETATM   20  F1  UNL     1      27.582   7.747  47.638  1.00  0.00    -0.206 F 
HETATM   21  C9  UNL     1      27.880   5.487  48.441  1.00  0.00     0.044 A 
HETATM   22  C10 UNL     1      27.290   4.389  49.019  1.00  0.00     0.032 A 
ENDBRANCH  14  16
ENDBRANCH  12  14
ENDBRANCH   2  12
BRANCH   1  23
HETATM   23  O1  UNL     1      21.196   2.442  51.532  1.00  0.00    -0.355 OA
HETATM   24  C1  UNL     1      21.029   3.765  52.037  1.00  0.00     0.210 C 
ENDBRANCH   1  23
TORSDOF 4
ENDMDL
MODEL 7
REMARK VINA RESULT:      -7.4      5.147      7.842
REMARK  4 active torsions:
REMARK  status: ('A' for Active; 'I' for Inactive)
REMARK    1  A    between atoms: O1_2  and  C2_3 
REMARK    2  A    between atoms: C3_4  and  C4_5 
REMARK    3  A    between atoms: C4_5  and  N1_7 
REMARK    4  A    between atoms: N1_7  and  C5_8 
ROOT
HETATM    1  C2  UNL     1      24.685   5.219  49.741  1.00  0.00     0.087 A 
HETATM    2  C3  UNL     1      24.794   4.069  50.378  1.00  0.00     0.009 A 
HETATM    3  C11 UNL     1      26.073   3.286  50.400  1.00  0.00     0.160 A 
HETATM    4  N2  UNL     1      27.120   3.960  49.673  1.00  0.00    -0.385 N 
HETATM    5  C12 UNL     1      27.051   5.196  48.974  1.00  0.00     0.041 A 
HETATM    6  C13 UNL     1      28.177   5.664  48.332  1.00  0.00     0.030 A 
HETATM    7  C14 UNL     1      28.060   6.869  47.670  1.00  0.00     0.002 A 
HETATM    8  C15 UNL     1      26.851   7.531  47.681  1.00  0.00     0.001 A 
HETATM    9  C16 UNL     1      25.757   7.002  48.348  1.00  0.00     0.016 A 
HETATM   10  C17 UNL     1      25.814   5.803  49.028  1.00  0.00     0.024 A 
HETATM   11  H12 UNL     1      28.032   3.421  49.697  1.00  0.00     0.160 HD
ENDROOT
BRANCH   2  12
HETATM   12  C4  UNL     1      23.816   3.286  51.159  1.00  0.00     0.213 C 
HETATM   13 CL1  UNL     1      23.756   3.881  52.844  1.00  0.00    -0.097 Cl
BRANCH  12  14
HETATM   14  N1  UNL     1      23.995   1.870  51.102  1.00  0.00    -0.369 N 
HETATM   15  H5  UNL     1      24.583   1.297  50.462  1.00  0.00     0.161 HD
BRANCH  14  16
HETATM   16  C5  UNL     1      23.303   1.012  52.017  1.00  0.00     0.029 A 
HETATM   17  C6  UNL     1      23.908   0.301  53.033  1.00  0.00     0.032 A 
HETATM   18  C7  UNL     1      23.250  -0.531  53.907  1.00  0.00     0.044 A 
HETATM   19  C8  UNL     1      21.898  -0.695  53.795  1.00  0.00     0.116 A 
HETATM   20  F1  UNL     1      21.329  -1.531  54.693  1.00  0.00    -0.206 F 
HETATM   21  C9  UNL     1      21.236  -0.019  52.810  1.00  0.00     0.044 A 
HETATM   22  C10 UNL     1      21.942   0.800  51.962  1.00  0.00     0.032 A 
ENDBRANCH  14  16
ENDBRANCH  12  14
ENDBRANCH   2  12
BRANCH   1  23
HETATM   23  O1  UNL     1      23.553   6.026  49.640  1.00  0.00    -0.355 OA
HETATM   24  C1  UNL     1      23.303   6.849  50.777  1.00  0.00     0.210 C 
ENDBRANCH   1  23
TORSDOF 4
ENDMDL
MODEL 8
REMARK VINA RESULT:      -7.4      1.868      2.405
REMARK  4 active torsions:
REMARK  status: ('A' for Active; 'I' for Inactive)
REMARK    1  A    between atoms: O1_2  and  C2_3 
REMARK    2  A    between atoms: C3_4  and  C4_5 
REMARK    3  A    between atoms: C4_5  and  N1_7 
REMARK    4  A    between atoms: N1_7  and  C5_8 
ROOT
HETATM    1  C2  UNL     1      22.560   2.357  52.469  1.00  0.00     0.087 A 
HETATM    2  C3  UNL     1      23.367   1.347  52.728  1.00  0.00     0.009 A 
HETATM    3  C11 UNL     1      22.892  -0.076  52.730  1.00  0.00     0.160 A 
HETATM    4  N2  UNL     1      21.492  -0.168  52.398  1.00  0.00    -0.385 N 
HETATM    5  C12 UNL     1      20.585   0.888  52.110  1.00  0.00     0.041 A 
HETATM    6  C13 UNL     1      19.273   0.582  51.822  1.00  0.00     0.030 A 
HETATM    7  C14 UNL     1      18.433   1.640  51.546  1.00  0.00     0.002 A 
HETATM    8  C15 UNL     1      18.934   2.924  51.573  1.00  0.00     0.001 A 
HETATM    9  C16 UNL     1      20.266   3.162  51.871  1.00  0.00     0.016 A 
HETATM   10  C17 UNL     1      21.154   2.144  52.154  1.00  0.00     0.024 A 
HETATM   11  H12 UNL     1      21.151  -1.171  52.381  1.00  0.00     0.160 HD
ENDROOT
BRANCH   2  12
HETATM   12  C4  UNL     1      24.804   1.303  53.068  1.00  0.00     0.213 C 
HETATM   13 CL1  UNL     1      25.789   1.652  51.617  1.00  0.00    -0.097 Cl
BRANCH  12  14
HETATM   14  N1  UNL     1      25.232   0.111  53.727  1.00  0.00    -0.369 N 
HETATM   15  H5  UNL     1      24.673  -0.615  54.222  1.00  0.00     0.161 HD
BRANCH  14  16
HETATM   16  C5  UNL     1      26.621  -0.234  53.777  1.00  0.00     0.029 A 
HETATM   17  C6  UNL     1      27.549   0.376  54.598  1.00  0.00     0.032 A 
HETATM   18  C7  UNL     1      28.885   0.055  54.642  1.00  0.00     0.044 A 
HETATM   19  C8  UNL     1      29.370  -0.932  53.832  1.00  0.00     0.116 A 
HETATM   20  F1  UNL     1      30.695  -1.184  53.938  1.00  0.00    -0.206 F 
HETATM   21  C9  UNL     1      28.505  -1.577  52.996  1.00  0.00     0.044 A 
HETATM   22  C10 UNL     1      27.178  -1.218  52.989  1.00  0.00     0.032 A 
ENDBRANCH  14  16
ENDBRANCH  12  14
ENDBRANCH   2  12
BRANCH   1  23
HETATM   23  O1  UNL     1      22.881   3.713  52.450  1.00  0.00    -0.355 OA
HETATM   24  C1  UNL     1      23.458   4.174  51.229  1.00  0.00     0.210 C 
ENDBRANCH   1  23
TORSDOF 4
ENDMDL
MODEL 9
REMARK VINA RESULT:      -7.1      4.051      6.049
REMARK  4 active torsions:
REMARK  status: ('A' for Active; 'I' for Inactive)
REMARK    1  A    between atoms: O1_2  and  C2_3 
REMARK    2  A    between atoms: C3_4  and  C4_5 
REMARK    3  A    between atoms: C4_5  and  N1_7 
REMARK    4  A    between atoms: N1_7  and  C5_8 
ROOT
HETATM    1  C2  UNL     1      22.951   1.375  51.988  1.00  0.00     0.087 A 
HETATM    2  C3  UNL     1      24.265   1.476  52.035  1.00  0.00     0.009 A 
HETATM    3  C11 UNL     1      25.102   0.612  52.931  1.00  0.00     0.160 A 
HETATM    4  N2  UNL     1      24.292  -0.317  53.679  1.00  0.00    -0.385 N 
HETATM    5  C12 UNL     1      22.879  -0.464  53.661  1.00  0.00     0.041 A 
HETATM    6  C13 UNL     1      22.296  -1.418  54.467  1.00  0.00     0.030 A 
HETATM    7  C14 UNL     1      20.922  -1.524  54.412  1.00  0.00     0.002 A 
HETATM    8  C15 UNL     1      20.213  -0.690  53.574  1.00  0.00     0.001 A 
HETATM    9  C16 UNL     1      20.863   0.249  52.789  1.00  0.00     0.016 A 
HETATM   10  C17 UNL     1      22.235   0.400  52.801  1.00  0.00     0.024 A 
HETATM   11  H12 UNL     1      24.877  -0.943  54.303  1.00  0.00     0.160 HD
ENDROOT
BRANCH   2  12
HETATM   12  C4  UNL     1      25.205   2.365  51.323  1.00  0.00     0.213 C 
HETATM   13 CL1  UNL     1      26.879   1.768  51.511  1.00  0.00    -0.097 Cl
BRANCH  12  14
HETATM   14  N1  UNL     1      25.094   3.750  51.656  1.00  0.00    -0.369 N 
HETATM   15  H5  UNL     1      25.440   4.264  52.493  1.00  0.00     0.161 HD
BRANCH  14  16
HETATM   16  C5  UNL     1      24.421   4.658  50.776  1.00  0.00     0.029 A 
HETATM   17  C6  UNL     1      23.667   5.736  51.193  1.00  0.00     0.032 A 
HETATM   18  C7  UNL     1      23.011   6.604  50.353  1.00  0.00     0.044 A 
HETATM   19  C8  UNL     1      23.085   6.422  49.001  1.00  0.00     0.116 A 
HETATM   20  F1  UNL     1      22.410   7.320  48.247  1.00  0.00    -0.206 F 
HETATM   21  C9  UNL     1      23.816   5.374  48.521  1.00  0.00     0.044 A 
HETATM   22  C10 UNL     1      24.452   4.534  49.404  1.00  0.00     0.032 A 
ENDBRANCH  14  16
ENDBRANCH  12  14
ENDBRANCH   2  12
BRANCH   1  23
HETATM   23  O1  UNL     1      22.072   2.125  51.209  1.00  0.00    -0.355 OA
HETATM   24  C1  UNL     1      22.040   1.766  49.829  1.00  0.00     0.210 C 
ENDBRANCH   1  23
TORSDOF 4
ENDMDL
