MODEL 1
REMARK VINA RESULT:      -7.4      0.000      0.000
REMARK  8 active torsions:
REMARK  status: ('A' for Active; 'I' for Inactive)
REMARK    1  A    between atoms: C3_3  and  C4_4 
REMARK    2  A    between atoms: C4_4  and  O1_5 
REMARK    3  A    between atoms: C4_4  and  C15_18 
REMARK    4  A    between atoms: O1_5  and  C5_6 
REMARK    5  A    between atoms: C5_6  and  C7_9 
REMARK    6  A    between atoms: C9_11  and  O2_12 
REMARK    7  A    between atoms: C11_14  and  C12_15 
REMARK    8  A    between atoms: C15_18  and  O3_19 
ROOT
HETATM    1  C1  UNL     1      29.411   0.512  53.901  1.00  0.00     0.012 C 
HETATM    2  C2  UNL     1      28.681   1.370  53.455  1.00  0.00    -0.115 C 
HETATM    3  C3  UNL     1      27.826   2.408  52.936  1.00  0.00     0.132 C 
ENDROOT
BRANCH   3   4
HETATM    4  C4  UNL     1      26.573   1.858  52.283  1.00  0.00     0.190 C 
BRANCH   4   5
HETATM    5  O1  UNL     1      26.763   0.589  51.755  1.00  0.00    -0.358 OA
BRANCH   5   6
HETATM    6  C5  UNL     1      25.904  -0.342  52.335  1.00  0.00     0.241 C 
HETATM    7  C6  UNL     1      26.615  -1.556  52.739  1.00  0.00     0.092 C 
HETATM    8  N1  UNL     1      27.184  -2.523  53.081  1.00  0.00    -0.194 NA
BRANCH   6   9
HETATM    9  C7  UNL     1      25.254   0.221  53.573  1.00  0.00     0.089 A 
HETATM   10  C8  UNL     1      25.488  -0.572  54.808  1.00  0.00     0.023 A 
HETATM   11  C9  UNL     1      24.268  -1.031  55.040  1.00  0.00     0.069 A 
HETATM   12  C10 UNL     1      23.871  -0.303  53.840  1.00  0.00    -0.014 A 
HETATM   13  C11 UNL     1      22.724  -0.149  53.209  1.00  0.00     0.010 C 
BRANCH  11  14
HETATM   14  O2  UNL     1      23.553  -1.832  55.948  1.00  0.00    -0.360 OA
HETATM   15  H8  UNL     1      23.230  -2.737  55.624  1.00  0.00     0.217 HD
ENDBRANCH  11  14
BRANCH  13  16
HETATM   16  C12 UNL     1      22.631   0.660  52.000  1.00  0.00    -0.004 C 
HETATM   17  C13 UNL     1      21.726   0.451  51.057  1.00  0.00    -0.031 C 
HETATM   18  C14 UNL     1      21.610   1.257  49.820  1.00  0.00     0.036 C 
ENDBRANCH  13  16
ENDBRANCH   6   9
ENDBRANCH   5   6
ENDBRANCH   4   5
BRANCH   4  19
HETATM   19  C15 UNL     1      26.147   2.772  51.176  1.00  0.00     0.069 C 
HETATM   20  C16 UNL     1      24.935   2.848  50.633  1.00  0.00     0.004 C 
HETATM   21  C17 UNL     1      24.731   3.838  49.534  1.00  0.00     0.038 C 
BRANCH  19  22
HETATM   22  O3  UNL     1      27.207   3.581  50.745  1.00  0.00    -0.363 OA
HETATM   23  H15 UNL     1      28.045   3.146  50.393  1.00  0.00     0.217 HD
ENDBRANCH  19  22
ENDBRANCH   4  19
ENDBRANCH   3   4
TORSDOF 8
ENDMDL
MODEL 2
REMARK VINA RESULT:      -7.2      1.858      5.295
REMARK  8 active torsions:
REMARK  status: ('A' for Active; 'I' for Inactive)
REMARK    1  A    between atoms: C3_3  and  C4_4 
REMARK    2  A    between atoms: C4_4  and  O1_5 
REMARK    3  A    between atoms: C4_4  and  C15_18 
REMARK    4  A    between atoms: O1_5  and  C5_6 
REMARK    5  A    between atoms: C5_6  and  C7_9 
REMARK    6  A    between atoms: C9_11  and  O2_12 
REMARK    7  A    between atoms: C11_14  and  C12_15 
REMARK    8  A    between atoms: C15_18  and  O3_19 
ROOT
HETATM    1  C1  UNL     1      21.526   0.742  49.920  1.00  0.00     0.012 C 
HETATM    2  C2  UNL     1      21.856   1.303  50.941  1.00  0.00    -0.115 C 
HETATM    3  C3  UNL     1      22.245   1.992  52.146  1.00  0.00     0.132 C 
ENDROOT
BRANCH   3   4
HETATM    4  C4  UNL     1      22.839   1.060  53.184  1.00  0.00     0.190 C 
BRANCH   4   5
HETATM    5  O1  UNL     1      23.875   0.291  52.675  1.00  0.00    -0.358 OA
BRANCH   5   6
HETATM    6  C5  UNL     1      25.057   0.487  53.386  1.00  0.00     0.241 C 
HETATM    7  C6  UNL     1      25.175  -0.445  54.508  1.00  0.00     0.092 C 
HETATM    8  N1  UNL     1      25.282  -1.203  55.398  1.00  0.00    -0.194 NA
BRANCH   6   9
HETATM    9  C7  UNL     1      26.259   0.270  52.504  1.00  0.00     0.089 A 
HETATM   10  C8  UNL     1      27.531   0.036  53.239  1.00  0.00     0.023 A 
HETATM   11  C9  UNL     1      28.194   1.142  52.939  1.00  0.00     0.069 A 
HETATM   12  C10 UNL     1      27.016   1.523  52.167  1.00  0.00    -0.014 A 
HETATM   13  C11 UNL     1      26.712   2.577  51.436  1.00  0.00     0.010 C 
BRANCH  11  14
HETATM   14  O2  UNL     1      29.426   1.777  53.173  1.00  0.00    -0.360 OA
HETATM   15  H8  UNL     1      29.557   2.236  54.068  1.00  0.00     0.217 HD
ENDBRANCH  11  14
BRANCH  13  16
HETATM   16  C12 UNL     1      25.423   2.681  50.764  1.00  0.00    -0.004 C 
HETATM   17  C13 UNL     1      25.198   3.509  49.754  1.00  0.00    -0.031 C 
HETATM   18  C14 UNL     1      23.899   3.634  49.055  1.00  0.00     0.036 C 
ENDBRANCH  13  16
ENDBRANCH   6   9
ENDBRANCH   5   6
ENDBRANCH   4   5
BRANCH   4  19
HETATM   19  C15 UNL     1      21.773   0.140  53.694  1.00  0.00     0.069 C 
HETATM   20  C16 UNL     1      21.809  -1.189  53.698  1.00  0.00     0.004 C 
HETATM   21  C17 UNL     1      20.628  -1.911  54.258  1.00  0.00     0.038 C 
BRANCH  19  22
HETATM   22  O3  UNL     1      20.676   0.856  54.193  1.00  0.00    -0.363 OA
HETATM   23  H15 UNL     1      19.817   0.365  54.387  1.00  0.00     0.217 HD
ENDBRANCH  19  22
ENDBRANCH   4  19
ENDBRANCH   3   4
TORSDOF 8
ENDMDL
MODEL 3
REMARK VINA RESULT:      -7.1      1.867      2.358
REMARK  8 active torsions:
REMARK  status: ('A' for Active; 'I' for Inactive)
REMARK    1  A    between atoms: C3_3  and  C4_4 
REMARK    2  A    between atoms: C4_4  and  O1_5 
REMARK    3  A    between atoms: C4_4  and  C15_18 
REMARK    4  A    between atoms: O1_5  and  C5_6 
REMARK    5  A    between atoms: C5_6  and  C7_9 
REMARK    6  A    between atoms: C9_11  and  O2_12 
REMARK    7  A    between atoms: C11_14  and  C12_15 
REMARK    8  A    between atoms: C15_18  and  O3_19 
ROOT
HETATM    1  C1  UNL     1      28.653   2.458  53.802  1.00  0.00     0.012 C 
HETATM    2  C2  UNL     1      27.831   1.989  53.046  1.00  0.00    -0.115 C 
HETATM    3  C3  UNL     1      26.869   1.430  52.129  1.00  0.00     0.132 C 
ENDROOT
BRANCH   3   4
HETATM    4  C4  UNL     1      25.455   1.468  52.674  1.00  0.00     0.190 C 
BRANCH   4   5
HETATM    5  O1  UNL     1      24.645   0.489  52.119  1.00  0.00    -0.358 OA
BRANCH   5   6
HETATM    6  C5  UNL     1      24.111  -0.350  53.095  1.00  0.00     0.241 C 
HETATM    7  C6  UNL     1      25.039  -0.539  54.212  1.00  0.00     0.092 C 
HETATM    8  N1  UNL     1      25.772  -0.679  55.117  1.00  0.00    -0.194 NA
BRANCH   6   9
HETATM    9  C7  UNL     1      22.844   0.229  53.668  1.00  0.00     0.089 A 
HETATM   10  C8  UNL     1      22.209  -0.601  54.727  1.00  0.00     0.023 A 
HETATM   11  C9  UNL     1      21.105  -0.987  54.107  1.00  0.00     0.069 A 
HETATM   12  C10 UNL     1      21.589  -0.213  52.969  1.00  0.00    -0.014 A 
HETATM   13  C11 UNL     1      21.111   0.023  51.763  1.00  0.00     0.010 C 
BRANCH  11  14
HETATM   14  O2  UNL     1      19.948  -1.760  54.311  1.00  0.00    -0.360 OA
HETATM   15  H8  UNL     1      19.745  -2.062  55.258  1.00  0.00     0.217 HD
ENDBRANCH  11  14
BRANCH  13  16
HETATM   16  C12 UNL     1      21.838   0.860  50.816  1.00  0.00    -0.004 C 
HETATM   17  C13 UNL     1      21.451   1.036  49.562  1.00  0.00    -0.031 C 
HETATM   18  C14 UNL     1      22.170   1.880  48.580  1.00  0.00     0.036 C 
ENDBRANCH  13  16
ENDBRANCH   6   9
ENDBRANCH   5   6
ENDBRANCH   4   5
BRANCH   4  19
HETATM   19  C15 UNL     1      24.847   2.806  52.383  1.00  0.00     0.069 C 
HETATM   20  C16 UNL     1      24.604   3.321  51.181  1.00  0.00     0.004 C 
HETATM   21  C17 UNL     1      23.987   4.680  51.124  1.00  0.00     0.038 C 
BRANCH  19  22
HETATM   22  O3  UNL     1      24.543   3.497  53.564  1.00  0.00    -0.363 OA
HETATM   23  H15 UNL     1      23.653   3.338  54.011  1.00  0.00     0.217 HD
ENDBRANCH  19  22
ENDBRANCH   4  19
ENDBRANCH   3   4
TORSDOF 8
ENDMDL
MODEL 4
REMARK VINA RESULT:      -7.0      2.914      5.946
REMARK  8 active torsions:
REMARK  status: ('A' for Active; 'I' for Inactive)
REMARK    1  A    between atoms: C3_3  and  C4_4 
REMARK    2  A    between atoms: C4_4  and  O1_5 
REMARK    3  A    between atoms: C4_4  and  C15_18 
REMARK    4  A    between atoms: O1_5  and  C5_6 
REMARK    5  A    between atoms: C5_6  and  C7_9 
REMARK    6  A    between atoms: C9_11  and  O2_12 
REMARK    7  A    between atoms: C11_14  and  C12_15 
REMARK    8  A    between atoms: C15_18  and  O3_19 
ROOT
HETATM    1  C1  UNL     1      21.508   0.970  49.772  1.00  0.00     0.012 C 
HETATM    2  C2  UNL     1      20.885   1.170  50.792  1.00  0.00    -0.115 C 
HETATM    3  C3  UNL     1      20.137   1.431  51.997  1.00  0.00     0.132 C 
ENDROOT
BRANCH   3   4
HETATM    4  C4  UNL     1      20.391   0.395  53.074  1.00  0.00     0.190 C 
BRANCH   4   5
HETATM    5  O1  UNL     1      21.546  -0.338  52.845  1.00  0.00    -0.358 OA
BRANCH   5   6
HETATM    6  C5  UNL     1      22.564   0.019  53.728  1.00  0.00     0.241 C 
HETATM    7  C6  UNL     1      22.727  -0.971  54.794  1.00  0.00     0.092 C 
HETATM    8  N1  UNL     1      22.874  -1.771  55.639  1.00  0.00    -0.194 NA
BRANCH   6   9
HETATM    9  C7  UNL     1      23.886   0.120  53.013  1.00  0.00     0.089 A 
HETATM   10  C8  UNL     1      25.024  -0.517  53.726  1.00  0.00     0.023 A 
HETATM   11  C9  UNL     1      25.739   0.549  54.050  1.00  0.00     0.069 A 
HETATM   12  C10 UNL     1      24.701   1.327  53.383  1.00  0.00    -0.014 A 
HETATM   13  C11 UNL     1      24.527   2.617  53.173  1.00  0.00     0.010 C 
BRANCH  11  14
HETATM   14  O2  UNL     1      26.927   0.912  54.709  1.00  0.00    -0.360 OA
HETATM   15  H8  UNL     1      26.886   1.691  55.358  1.00  0.00     0.217 HD
ENDBRANCH  11  14
BRANCH  13  16
HETATM   16  C12 UNL     1      23.360   3.112  52.455  1.00  0.00    -0.004 C 
HETATM   17  C13 UNL     1      23.047   4.398  52.383  1.00  0.00    -0.031 C 
HETATM   18  C14 UNL     1      21.868   4.928  51.660  1.00  0.00     0.036 C 
ENDBRANCH  13  16
ENDBRANCH   6   9
ENDBRANCH   5   6
ENDBRANCH   4   5
BRANCH   4  19
HETATM   19  C15 UNL     1      19.233  -0.554  53.134  1.00  0.00     0.069 C 
HETATM   20  C16 UNL     1      18.117  -0.487  52.415  1.00  0.00     0.004 C 
HETATM   21  C17 UNL     1      17.087  -1.546  52.638  1.00  0.00     0.038 C 
BRANCH  19  22
HETATM   22  O3  UNL     1      19.455  -1.572  54.072  1.00  0.00    -0.363 OA
HETATM   23  H15 UNL     1      20.389  -1.723  54.420  1.00  0.00     0.217 HD
ENDBRANCH  19  22
ENDBRANCH   4  19
ENDBRANCH   3   4
TORSDOF 8
ENDMDL
MODEL 5
REMARK VINA RESULT:      -6.9      2.568      4.497
REMARK  8 active torsions:
REMARK  status: ('A' for Active; 'I' for Inactive)
REMARK    1  A    between atoms: C3_3  and  C4_4 
REMARK    2  A    between atoms: C4_4  and  O1_5 
REMARK    3  A    between atoms: C4_4  and  C15_18 
REMARK    4  A    between atoms: O1_5  and  C5_6 
REMARK    5  A    between atoms: C5_6  and  C7_9 
REMARK    6  A    between atoms: C9_11  and  O2_12 
REMARK    7  A    between atoms: C11_14  and  C12_15 
REMARK    8  A    between atoms: C15_18  and  O3_19 
ROOT
HETATM    1  C1  UNL     1      23.182   4.154  52.443  1.00  0.00     0.012 C 
HETATM    2  C2  UNL     1      24.054   3.318  52.350  1.00  0.00    -0.115 C 
HETATM    3  C3  UNL     1      25.105   2.339  52.229  1.00  0.00     0.132 C 
ENDROOT
BRANCH   3   4
HETATM    4  C4  UNL     1      24.645   0.942  52.599  1.00  0.00     0.190 C 
BRANCH   4   5
HETATM    5  O1  UNL     1      23.699   0.946  53.612  1.00  0.00    -0.358 OA
BRANCH   5   6
HETATM    6  C5  UNL     1      22.671   0.039  53.358  1.00  0.00     0.241 C 
HETATM    7  C6  UNL     1      22.515  -0.922  54.451  1.00  0.00     0.092 C 
HETATM    8  N1  UNL     1      22.374  -1.683  55.333  1.00  0.00    -0.194 NA
BRANCH   6   9
HETATM    9  C7  UNL     1      21.351   0.750  53.204  1.00  0.00     0.089 A 
HETATM   10  C8  UNL     1      20.195   0.045  53.815  1.00  0.00     0.023 A 
HETATM   11  C9  UNL     1      19.514  -0.298  52.732  1.00  0.00     0.069 A 
HETATM   12  C10 UNL     1      20.576   0.359  51.977  1.00  0.00    -0.014 A 
HETATM   13  C11 UNL     1      20.791   0.550  50.690  1.00  0.00     0.010 C 
BRANCH  11  14
HETATM   14  O2  UNL     1      18.340  -0.964  52.341  1.00  0.00    -0.360 OA
HETATM   15  H8  UNL     1      17.712  -1.279  53.073  1.00  0.00     0.217 HD
ENDBRANCH  11  14
BRANCH  13  16
HETATM   16  C12 UNL     1      21.972   1.263  50.221  1.00  0.00    -0.004 C 
HETATM   17  C13 UNL     1      21.940   2.146  49.235  1.00  0.00    -0.031 C 
HETATM   18  C14 UNL     1      23.124   2.884  48.739  1.00  0.00     0.036 C 
ENDBRANCH  13  16
ENDBRANCH   6   9
ENDBRANCH   5   6
ENDBRANCH   4   5
BRANCH   4  19
HETATM   19  C15 UNL     1      25.823   0.135  53.055  1.00  0.00     0.069 C 
HETATM   20  C16 UNL     1      26.642  -0.574  52.285  1.00  0.00     0.004 C 
HETATM   21  C17 UNL     1      27.759  -1.306  52.955  1.00  0.00     0.038 C 
BRANCH  19  22
HETATM   22  O3  UNL     1      25.983   0.206  54.445  1.00  0.00    -0.363 OA
HETATM   23  H15 UNL     1      26.127   1.106  54.878  1.00  0.00     0.217 HD
ENDBRANCH  19  22
ENDBRANCH   4  19
ENDBRANCH   3   4
TORSDOF 8
ENDMDL
MODEL 6
REMARK VINA RESULT:      -6.9      2.834      4.997
REMARK  8 active torsions:
REMARK  status: ('A' for Active; 'I' for Inactive)
REMARK    1  A    between atoms: C3_3  and  C4_4 
REMARK    2  A    between atoms: C4_4  and  O1_5 
REMARK    3  A    between atoms: C4_4  and  C15_18 
REMARK    4  A    between atoms: O1_5  and  C5_6 
REMARK    5  A    between atoms: C5_6  and  C7_9 
REMARK    6  A    between atoms: C9_11  and  O2_12 
REMARK    7  A    between atoms: C11_14  and  C12_15 
REMARK    8  A    between atoms: C15_18  and  O3_19 
ROOT
HETATM    1  C1  UNL     1      26.487   3.688  49.370  1.00  0.00     0.012 C 
HETATM    2  C2  UNL     1      26.586   3.134  50.443  1.00  0.00    -0.115 C 
HETATM    3  C3  UNL     1      26.728   2.481  51.720  1.00  0.00     0.132 C 
ENDROOT
BRANCH   3   4
HETATM    4  C4  UNL     1      25.532   1.615  52.067  1.00  0.00     0.190 C 
BRANCH   4   5
HETATM    5  O1  UNL     1      24.683   2.223  52.980  1.00  0.00    -0.358 OA
BRANCH   5   6
HETATM    6  C5  UNL     1      23.467   2.573  52.397  1.00  0.00     0.241 C 
HETATM    7  C6  UNL     1      23.443   3.982  51.999  1.00  0.00     0.092 C 
HETATM    8  N1  UNL     1      23.426   5.105  51.662  1.00  0.00    -0.194 NA
BRANCH   6   9
HETATM    9  C7  UNL     1      23.211   1.760  51.155  1.00  0.00     0.089 A 
HETATM   10  C8  UNL     1      22.453   2.474  50.094  1.00  0.00     0.023 A 
HETATM   11  C9  UNL     1      21.314   1.799  50.109  1.00  0.00     0.069 A 
HETATM   12  C10 UNL     1      21.917   0.997  51.169  1.00  0.00    -0.014 A 
HETATM   13  C11 UNL     1      21.494  -0.026  51.885  1.00  0.00     0.010 C 
BRANCH  11  14
HETATM   14  O2  UNL     1      20.057   1.757  49.480  1.00  0.00    -0.360 OA
HETATM   15  H8  UNL     1      19.582   2.639  49.319  1.00  0.00     0.217 HD
ENDBRANCH  11  14
BRANCH  13  16
HETATM   16  C12 UNL     1      22.343  -0.637  52.899  1.00  0.00    -0.004 C 
HETATM   17  C13 UNL     1      22.022  -0.675  54.184  1.00  0.00    -0.031 C 
HETATM   18  C14 UNL     1      22.866  -1.290  55.235  1.00  0.00     0.036 C 
ENDBRANCH  13  16
ENDBRANCH   6   9
ENDBRANCH   5   6
ENDBRANCH   4   5
BRANCH   4  19
HETATM   19  C15 UNL     1      26.007   0.321  52.653  1.00  0.00     0.069 C 
HETATM   20  C16 UNL     1      26.665  -0.642  52.015  1.00  0.00     0.004 C 
HETATM   21  C17 UNL     1      27.045  -1.855  52.799  1.00  0.00     0.038 C 
BRANCH  19  22
HETATM   22  O3  UNL     1      25.674   0.222  54.010  1.00  0.00    -0.363 OA
HETATM   23  H15 UNL     1      24.860   0.709  54.353  1.00  0.00     0.217 HD
ENDBRANCH  19  22
ENDBRANCH   4  19
ENDBRANCH   3   4
TORSDOF 8
ENDMDL
MODEL 7
REMARK VINA RESULT:      -6.8      3.301      4.854
REMARK  8 active torsions:
REMARK  status: ('A' for Active; 'I' for Inactive)
REMARK    1  A    between atoms: C3_3  and  C4_4 
REMARK    2  A    between atoms: C4_4  and  O1_5 
REMARK    3  A    between atoms: C4_4  and  C15_18 
REMARK    4  A    between atoms: O1_5  and  C5_6 
REMARK    5  A    between atoms: C5_6  and  C7_9 
REMARK    6  A    between atoms: C9_11  and  O2_12 
REMARK    7  A    between atoms: C11_14  and  C12_15 
REMARK    8  A    between atoms: C15_18  and  O3_19 
ROOT
HETATM    1  C1  UNL     1      26.214   1.601  51.614  1.00  0.00     0.012 C 
HETATM    2  C2  UNL     1      25.378   2.166  52.284  1.00  0.00    -0.115 C 
HETATM    3  C3  UNL     1      24.395   2.832  53.102  1.00  0.00     0.132 C 
ENDROOT
BRANCH   3   4
HETATM    4  C4  UNL     1      23.163   3.238  52.317  1.00  0.00     0.190 C 
BRANCH   4   5
HETATM    5  O1  UNL     1      22.493   2.149  51.779  1.00  0.00    -0.358 OA
BRANCH   5   6
HETATM    6  C5  UNL     1      21.336   1.852  52.497  1.00  0.00     0.241 C 
HETATM    7  C6  UNL     1      20.275   2.827  52.240  1.00  0.00     0.092 C 
HETATM    8  N1  UNL     1      19.415   3.595  52.022  1.00  0.00    -0.194 NA
BRANCH   6   9
HETATM    9  C7  UNL     1      20.795   0.499  52.113  1.00  0.00     0.089 A 
HETATM   10  C8  UNL     1      19.321   0.364  52.243  1.00  0.00     0.023 A 
HETATM   11  C9  UNL     1      19.240  -0.496  53.246  1.00  0.00     0.069 A 
HETATM   12  C10 UNL     1      20.699  -0.476  53.251  1.00  0.00    -0.014 A 
HETATM   13  C11 UNL     1      21.612  -1.086  53.981  1.00  0.00     0.010 C 
BRANCH  11  14
HETATM   14  O2  UNL     1      18.294  -1.181  54.029  1.00  0.00    -0.360 OA
HETATM   15  H8  UNL     1      18.603  -1.558  54.919  1.00  0.00     0.217 HD
ENDBRANCH  11  14
BRANCH  13  16
HETATM   16  C12 UNL     1      23.034  -0.864  53.748  1.00  0.00    -0.004 C 
HETATM   17  C13 UNL     1      23.938  -0.885  54.716  1.00  0.00    -0.031 C 
HETATM   18  C14 UNL     1      25.387  -0.663  54.507  1.00  0.00     0.036 C 
ENDBRANCH  13  16
ENDBRANCH   6   9
ENDBRANCH   5   6
ENDBRANCH   4   5
BRANCH   4  19
HETATM   19  C15 UNL     1      23.565   4.146  51.195  1.00  0.00     0.069 C 
HETATM   20  C16 UNL     1      23.351   3.946  49.898  1.00  0.00     0.004 C 
HETATM   21  C17 UNL     1      23.840   4.989  48.949  1.00  0.00     0.038 C 
BRANCH  19  22
HETATM   22  O3  UNL     1      24.224   5.287  51.674  1.00  0.00    -0.363 OA
HETATM   23  H15 UNL     1      25.172   5.203  52.006  1.00  0.00     0.217 HD
ENDBRANCH  19  22
ENDBRANCH   4  19
ENDBRANCH   3   4
TORSDOF 8
ENDMDL
MODEL 8
REMARK VINA RESULT:      -6.6      2.566      4.430
REMARK  8 active torsions:
REMARK  status: ('A' for Active; 'I' for Inactive)
REMARK    1  A    between atoms: C3_3  and  C4_4 
REMARK    2  A    between atoms: C4_4  and  O1_5 
REMARK    3  A    between atoms: C4_4  and  C15_18 
REMARK    4  A    between atoms: O1_5  and  C5_6 
REMARK    5  A    between atoms: C5_6  and  C7_9 
REMARK    6  A    between atoms: C9_11  and  O2_12 
REMARK    7  A    between atoms: C11_14  and  C12_15 
REMARK    8  A    between atoms: C15_18  and  O3_19 
ROOT
HETATM    1  C1  UNL     1      21.523   1.095  49.243  1.00  0.00     0.012 C 
HETATM    2  C2  UNL     1      21.702   1.809  50.205  1.00  0.00    -0.115 C 
HETATM    3  C3  UNL     1      21.890   2.655  51.357  1.00  0.00     0.132 C 
ENDROOT
BRANCH   3   4
HETATM    4  C4  UNL     1      23.221   3.381  51.334  1.00  0.00     0.190 C 
BRANCH   4   5
HETATM    5  O1  UNL     1      24.046   3.011  52.386  1.00  0.00    -0.358 OA
BRANCH   5   6
HETATM    6  C5  UNL     1      24.965   2.037  52.000  1.00  0.00     0.241 C 
HETATM    7  C6  UNL     1      26.100   2.619  51.283  1.00  0.00     0.092 C 
HETATM    8  N1  UNL     1      27.021   3.083  50.723  1.00  0.00    -0.194 NA
BRANCH   6   9
HETATM    9  C7  UNL     1      25.524   1.317  53.201  1.00  0.00     0.089 A 
HETATM   10  C8  UNL     1      26.842   0.670  52.974  1.00  0.00     0.023 A 
HETATM   11  C9  UNL     1      26.505  -0.608  53.049  1.00  0.00     0.069 A 
HETATM   12  C10 UNL     1      25.146  -0.134  53.284  1.00  0.00    -0.014 A 
HETATM   13  C11 UNL     1      23.996  -0.744  53.496  1.00  0.00     0.010 C 
BRANCH  11  14
HETATM   14  O2  UNL     1      27.064  -1.895  52.964  1.00  0.00    -0.360 OA
HETATM   15  H8  UNL     1      28.069  -1.965  52.843  1.00  0.00     0.217 HD
ENDBRANCH  11  14
BRANCH  13  16
HETATM   16  C12 UNL     1      22.769   0.014  53.705  1.00  0.00    -0.004 C 
HETATM   17  C13 UNL     1      21.561  -0.520  53.599  1.00  0.00    -0.031 C 
HETATM   18  C14 UNL     1      20.299   0.226  53.806  1.00  0.00     0.036 C 
ENDBRANCH  13  16
ENDBRANCH   6   9
ENDBRANCH   5   6
ENDBRANCH   4   5
BRANCH   4  19
HETATM   19  C15 UNL     1      22.984   4.858  51.416  1.00  0.00     0.069 C 
HETATM   20  C16 UNL     1      22.200   5.579  50.621  1.00  0.00     0.004 C 
HETATM   21  C17 UNL     1      22.110   7.046  50.885  1.00  0.00     0.038 C 
BRANCH  19  22
HETATM   22  O3  UNL     1      23.708   5.434  52.468  1.00  0.00    -0.363 OA
HETATM   23  H15 UNL     1      24.610   5.844  52.277  1.00  0.00     0.217 HD
ENDBRANCH  19  22
ENDBRANCH   4  19
ENDBRANCH   3   4
TORSDOF 8
ENDMDL
MODEL 9
REMARK VINA RESULT:      -6.6      2.400      4.797
REMARK  8 active torsions:
REMARK  status: ('A' for Active; 'I' for Inactive)
REMARK    1  A    between atoms: C3_3  and  C4_4 
REMARK    2  A    between atoms: C4_4  and  O1_5 
REMARK    3  A    between atoms: C4_4  and  C15_18 
REMARK    4  A    between atoms: O1_5  and  C5_6 
REMARK    5  A    between atoms: C5_6  and  C7_9 
REMARK    6  A    between atoms: C9_11  and  O2_12 
REMARK    7  A    between atoms: C11_14  and  C12_15 
REMARK    8  A    between atoms: C15_18  and  O3_19 
ROOT
HETATM    1  C1  UNL     1      24.873  -1.134  55.655  1.00  0.00     0.012 C 
HETATM    2  C2  UNL     1      25.566  -0.278  55.151  1.00  0.00    -0.115 C 
HETATM    3  C3  UNL     1      26.389   0.755  54.571  1.00  0.00     0.132 C 
ENDROOT
BRANCH   3   4
HETATM    4  C4  UNL     1      26.682   0.510  53.104  1.00  0.00     0.190 C 
BRANCH   4   5
HETATM    5  O1  UNL     1      25.531   0.464  52.333  1.00  0.00    -0.358 OA
BRANCH   5   6
HETATM    6  C5  UNL     1      25.088   1.742  51.994  1.00  0.00     0.241 C 
HETATM    7  C6  UNL     1      26.109   2.492  51.261  1.00  0.00     0.092 C 
HETATM    8  N1  UNL     1      26.918   3.089  50.657  1.00  0.00    -0.194 NA
BRANCH   6   9
HETATM    9  C7  UNL     1      23.871   1.674  51.109  1.00  0.00     0.089 A 
HETATM   10  C8  UNL     1      23.601   2.912  50.333  1.00  0.00     0.023 A 
HETATM   11  C9  UNL     1      22.484   3.327  50.910  1.00  0.00     0.069 A 
HETATM   12  C10 UNL     1      22.603   2.148  51.762  1.00  0.00    -0.014 A 
HETATM   13  C11 UNL     1      21.873   1.663  52.747  1.00  0.00     0.010 C 
BRANCH  11  14
HETATM   14  O2  UNL     1      21.539   4.365  50.846  1.00  0.00    -0.360 OA
HETATM   15  H8  UNL     1      20.727   4.227  50.253  1.00  0.00     0.217 HD
ENDBRANCH  11  14
BRANCH  13  16
HETATM   16  C12 UNL     1      22.251   0.432  53.428  1.00  0.00    -0.004 C 
HETATM   17  C13 UNL     1      21.374  -0.491  53.795  1.00  0.00    -0.031 C 
HETATM   18  C14 UNL     1      21.731  -1.750  54.488  1.00  0.00     0.036 C 
ENDBRANCH  13  16
ENDBRANCH   6   9
ENDBRANCH   5   6
ENDBRANCH   4   5
BRANCH   4  19
HETATM   19  C15 UNL     1      27.405  -0.793  52.953  1.00  0.00     0.069 C 
HETATM   20  C16 UNL     1      28.619  -1.083  53.411  1.00  0.00     0.004 C 
HETATM   21  C17 UNL     1      29.149  -2.454  53.144  1.00  0.00     0.038 C 
BRANCH  19  22
HETATM   22  O3  UNL     1      26.635  -1.725  52.243  1.00  0.00    -0.363 OA
HETATM   23  H15 UNL     1      26.675  -2.697  52.508  1.00  0.00     0.217 HD
ENDBRANCH  19  22
ENDBRANCH   4  19
ENDBRANCH   3   4
TORSDOF 8
ENDMDL
