MODEL 1
REMARK VINA RESULT:      -8.3      0.000      0.000
REMARK  2 active torsions:
REMARK  status: ('A' for Active; 'I' for Inactive)
REMARK    1  A    between atoms: C8_11  and  N4_12 
REMARK    2  A    between atoms: N4_12  and  C9_13 
ROOT
HETATM    1  C1  UNL     1      27.678  -1.430  53.019  1.00  0.00     0.310 C 
HETATM    2  N1  UNL     1      26.854  -0.316  53.524  1.00  0.00     0.086 N 
HETATM    3  C2  UNL     1      27.651   0.215  54.641  1.00  0.00     0.275 C 
HETATM    4  C3  UNL     1      28.819   1.027  54.058  1.00  0.00     0.057 C 
HETATM    5  C4  UNL     1      28.196   2.243  53.389  1.00  0.00    -0.023 C 
HETATM    6  C5  UNL     1      27.436   2.010  52.332  1.00  0.00     0.028 C 
HETATM    7  C6  UNL     1      26.638   2.752  51.375  1.00  0.00     0.070 A 
HETATM    8  N2  UNL     1      26.813   3.284  50.170  1.00  0.00    -0.241 NA
HETATM    9  C7  UNL     1      25.875   3.949  49.495  1.00  0.00     0.235 A 
HETATM   10  N3  UNL     1      24.668   4.065  50.113  1.00  0.00    -0.224 NA
HETATM   11  C8  UNL     1      24.395   3.560  51.332  1.00  0.00     0.140 A 
HETATM   12  C15 UNL     1      25.373   2.879  52.018  1.00  0.00     0.040 A 
HETATM   13  C16 UNL     1      24.955   2.375  53.350  1.00  0.00     0.212 C 
HETATM   14  O1  UNL     1      24.300   1.270  53.503  1.00  0.00    -0.385 OA
HETATM   15  C17 UNL     1      24.417   0.021  53.248  1.00  0.00     0.198 C 
HETATM   16  C18 UNL     1      25.572  -0.740  53.851  1.00  0.00     0.298 C 
ENDROOT
BRANCH  11  17
HETATM   17  N4  UNL     1      23.048   3.886  51.638  1.00  0.00    -0.340 N 
HETATM   18  H11 UNL     1      22.593   4.699  52.099  1.00  0.00     0.167 HD
BRANCH  17  19
HETATM   19  C9  UNL     1      22.062   2.899  51.235  1.00  0.00     0.035 A 
HETATM   20  C10 UNL     1      22.363   1.709  50.590  1.00  0.00     0.032 A 
HETATM   21  C11 UNL     1      21.377   0.829  50.247  1.00  0.00     0.046 A 
HETATM   22  C12 UNL     1      20.035   1.059  50.515  1.00  0.00     0.138 A 
HETATM   23  F1  UNL     1      19.067   0.179  50.167  1.00  0.00    -0.204 F 
HETATM   24  C13 UNL     1      19.677   2.247  51.163  1.00  0.00     0.074 A 
HETATM   25 CL1  UNL     1      18.028   2.645  51.554  1.00  0.00    -0.081 Cl
HETATM   26  C14 UNL     1      20.719   3.094  51.483  1.00  0.00     0.056 A 
ENDBRANCH  17  19
ENDBRANCH  11  17
TORSDOF 2
ENDMDL
MODEL 2
REMARK VINA RESULT:      -8.3      3.526      6.843
REMARK  2 active torsions:
REMARK  status: ('A' for Active; 'I' for Inactive)
REMARK    1  A    between atoms: C8_11  and  N4_12 
REMARK    2  A    between atoms: N4_12  and  C9_13 
ROOT
HETATM    1  C1  UNL     1      20.321   5.164  49.207  1.00  0.00     0.310 C 
HETATM    2  N1  UNL     1      20.891   4.094  50.047  1.00  0.00     0.086 N 
HETATM    3  C2  UNL     1      20.247   2.877  49.526  1.00  0.00     0.275 C 
HETATM    4  C3  UNL     1      20.912   2.513  48.189  1.00  0.00     0.057 C 
HETATM    5  C4  UNL     1      22.339   2.106  48.524  1.00  0.00    -0.023 C 
HETATM    6  C5  UNL     1      23.127   3.055  49.002  1.00  0.00     0.028 C 
HETATM    7  C6  UNL     1      24.491   3.211  49.467  1.00  0.00     0.070 A 
HETATM    8  N2  UNL     1      25.659   3.575  48.948  1.00  0.00    -0.241 NA
HETATM    9  C7  UNL     1      26.805   3.622  49.626  1.00  0.00     0.235 A 
HETATM   10  N3  UNL     1      26.733   3.270  50.940  1.00  0.00    -0.224 NA
HETATM   11  C8  UNL     1      25.597   2.889  51.555  1.00  0.00     0.140 A 
HETATM   12  C15 UNL     1      24.422   2.842  50.841  1.00  0.00     0.040 A 
HETATM   13  C16 UNL     1      23.242   2.402  51.626  1.00  0.00     0.212 C 
HETATM   14  O1  UNL     1      22.566   3.208  52.381  1.00  0.00    -0.385 OA
HETATM   15  C17 UNL     1      21.902   4.298  52.297  1.00  0.00     0.198 C 
HETATM   16  C18 UNL     1      20.690   4.346  51.398  1.00  0.00     0.298 C 
ENDROOT
BRANCH  11  17
HETATM   17  N4  UNL     1      25.919   2.598  52.907  1.00  0.00    -0.340 N 
HETATM   18  H11 UNL     1      25.583   2.964  53.819  1.00  0.00     0.167 HD
BRANCH  17  19
HETATM   19  C9  UNL     1      26.930   1.574  53.098  1.00  0.00     0.035 A 
HETATM   20  C10 UNL     1      28.198   1.809  53.607  1.00  0.00     0.032 A 
HETATM   21  C11 UNL     1      29.092   0.788  53.761  1.00  0.00     0.046 A 
HETATM   22  C12 UNL     1      28.801  -0.526  53.425  1.00  0.00     0.138 A 
HETATM   23  F1  UNL     1      29.697  -1.528  53.580  1.00  0.00    -0.204 F 
HETATM   24  C13 UNL     1      27.534  -0.818  52.904  1.00  0.00     0.074 A 
HETATM   25 CL1  UNL     1      27.052  -2.427  52.449  1.00  0.00    -0.081 Cl
HETATM   26  C14 UNL     1      26.677   0.256  52.774  1.00  0.00     0.056 A 
ENDBRANCH  17  19
ENDBRANCH  11  17
TORSDOF 2
ENDMDL
MODEL 3
REMARK VINA RESULT:      -8.1      2.540      3.958
REMARK  2 active torsions:
REMARK  status: ('A' for Active; 'I' for Inactive)
REMARK    1  A    between atoms: C8_11  and  N4_12 
REMARK    2  A    between atoms: N4_12  and  C9_13 
ROOT
HETATM    1  C1  UNL     1      28.399   0.321  55.040  1.00  0.00     0.310 C 
HETATM    2  N1  UNL     1      27.580   0.692  53.870  1.00  0.00     0.086 N 
HETATM    3  C2  UNL     1      28.173  -0.100  52.779  1.00  0.00     0.275 C 
HETATM    4  C3  UNL     1      27.716  -1.559  52.938  1.00  0.00     0.057 C 
HETATM    5  C4  UNL     1      26.218  -1.564  52.677  1.00  0.00    -0.023 C 
HETATM    6  C5  UNL     1      25.464  -0.918  53.551  1.00  0.00     0.028 C 
HETATM    7  C6  UNL     1      24.064  -0.612  53.771  1.00  0.00     0.070 A 
HETATM    8  N2  UNL     1      23.050  -1.139  54.450  1.00  0.00    -0.241 NA
HETATM    9  C7  UNL     1      21.814  -0.640  54.471  1.00  0.00     0.235 A 
HETATM   10  N3  UNL     1      21.618   0.490  53.737  1.00  0.00    -0.224 NA
HETATM   11  C8  UNL     1      22.582   1.097  53.018  1.00  0.00     0.140 A 
HETATM   12  C15 UNL     1      23.852   0.568  53.003  1.00  0.00     0.040 A 
HETATM   13  C16 UNL     1      24.823   1.321  52.172  1.00  0.00     0.212 C 
HETATM   14  O1  UNL     1      25.438   2.376  52.600  1.00  0.00    -0.385 OA
HETATM   15  C17 UNL     1      26.219   2.734  53.549  1.00  0.00     0.198 C 
HETATM   16  C18 UNL     1      27.567   2.066  53.673  1.00  0.00     0.298 C 
ENDROOT
BRANCH  11  17
HETATM   17  N4  UNL     1      21.999   2.230  52.391  1.00  0.00    -0.340 N 
HETATM   18  H11 UNL     1      21.520   3.080  52.748  1.00  0.00     0.167 HD
BRANCH  17  19
HETATM   19  C9  UNL     1      22.068   2.242  50.941  1.00  0.00     0.035 A 
HETATM   20  C10 UNL     1      21.656   1.198  50.128  1.00  0.00     0.032 A 
HETATM   21  C11 UNL     1      21.751   1.289  48.768  1.00  0.00     0.046 A 
HETATM   22  C12 UNL     1      22.254   2.408  48.121  1.00  0.00     0.138 A 
HETATM   23  F1  UNL     1      22.344   2.485  46.773  1.00  0.00    -0.204 F 
HETATM   24  C13 UNL     1      22.686   3.491  48.897  1.00  0.00     0.074 A 
HETATM   25 CL1  UNL     1      23.334   4.949  48.199  1.00  0.00    -0.081 Cl
HETATM   26  C14 UNL     1      22.565   3.337  50.263  1.00  0.00     0.056 A 
ENDBRANCH  17  19
ENDBRANCH  11  17
TORSDOF 2
ENDMDL
MODEL 4
REMARK VINA RESULT:      -7.5      3.966      7.123
REMARK  2 active torsions:
REMARK  status: ('A' for Active; 'I' for Inactive)
REMARK    1  A    between atoms: C8_11  and  N4_12 
REMARK    2  A    between atoms: N4_12  and  C9_13 
ROOT
HETATM    1  C1  UNL     1      23.653   7.408  46.630  1.00  0.00     0.310 C 
HETATM    2  N1  UNL     1      24.068   7.485  48.043  1.00  0.00     0.086 N 
HETATM    3  C2  UNL     1      23.839   8.898  48.386  1.00  0.00     0.275 C 
HETATM    4  C3  UNL     1      22.327   9.112  48.569  1.00  0.00     0.057 C 
HETATM    5  C4  UNL     1      21.936   8.324  49.809  1.00  0.00    -0.023 C 
HETATM    6  C5  UNL     1      22.045   7.007  49.731  1.00  0.00     0.028 C 
HETATM    7  C6  UNL     1      21.830   5.842  50.566  1.00  0.00     0.070 A 
HETATM    8  N2  UNL     1      20.848   4.974  50.789  1.00  0.00    -0.241 NA
HETATM    9  C7  UNL     1      20.916   3.962  51.653  1.00  0.00     0.235 A 
HETATM   10  N3  UNL     1      22.090   3.839  52.333  1.00  0.00    -0.224 NA
HETATM   11  C8  UNL     1      23.140   4.667  52.175  1.00  0.00     0.140 A 
HETATM   12  C15 UNL     1      23.054   5.709  51.282  1.00  0.00     0.040 A 
HETATM   13  C16 UNL     1      24.272   6.554  51.201  1.00  0.00     0.212 C 
HETATM   14  O1  UNL     1      25.299   6.231  50.483  1.00  0.00    -0.385 OA
HETATM   15  C17 UNL     1      25.596   5.970  49.266  1.00  0.00     0.198 C 
HETATM   16  C18 UNL     1      25.369   7.030  48.216  1.00  0.00     0.298 C 
ENDROOT
BRANCH  11  17
HETATM   17  N4  UNL     1      24.167   4.226  53.050  1.00  0.00    -0.340 N 
HETATM   18  H11 UNL     1      24.546   4.582  53.949  1.00  0.00     0.167 HD
BRANCH  17  19
HETATM   19  C9  UNL     1      24.861   3.019  52.636  1.00  0.00     0.035 A 
HETATM   20  C10 UNL     1      25.608   2.904  51.474  1.00  0.00     0.032 A 
HETATM   21  C11 UNL     1      26.234   1.733  51.157  1.00  0.00     0.046 A 
HETATM   22  C12 UNL     1      26.168   0.602  51.958  1.00  0.00     0.138 A 
HETATM   23  F1  UNL     1      26.792  -0.554  51.630  1.00  0.00    -0.204 F 
HETATM   24  C13 UNL     1      25.424   0.664  53.142  1.00  0.00     0.074 A 
HETATM   25 CL1  UNL     1      25.270  -0.687  54.228  1.00  0.00    -0.081 Cl
HETATM   26  C14 UNL     1      24.816   1.875  53.406  1.00  0.00     0.056 A 
ENDBRANCH  17  19
ENDBRANCH  11  17
TORSDOF 2
ENDMDL
MODEL 5
REMARK VINA RESULT:      -7.5      3.207      6.090
REMARK  2 active torsions:
REMARK  status: ('A' for Active; 'I' for Inactive)
REMARK    1  A    between atoms: C8_11  and  N4_12 
REMARK    2  A    between atoms: N4_12  and  C9_13 
ROOT
HETATM    1  C1  UNL     1      19.704   5.072  47.403  1.00  0.00     0.310 C 
HETATM    2  N1  UNL     1      20.921   4.249  47.534  1.00  0.00     0.086 N 
HETATM    3  C2  UNL     1      21.799   4.773  46.475  1.00  0.00     0.275 C 
HETATM    4  C3  UNL     1      22.370   6.122  46.943  1.00  0.00     0.057 C 
HETATM    5  C4  UNL     1      23.288   5.808  48.114  1.00  0.00    -0.023 C 
HETATM    6  C5  UNL     1      22.712   5.331  49.205  1.00  0.00     0.028 C 
HETATM    7  C6  UNL     1      23.087   4.882  50.531  1.00  0.00     0.070 A 
HETATM    8  N2  UNL     1      23.184   5.412  51.746  1.00  0.00    -0.241 NA
HETATM    9  C7  UNL     1      23.580   4.748  52.831  1.00  0.00     0.235 A 
HETATM   10  N3  UNL     1      23.896   3.436  52.642  1.00  0.00    -0.224 NA
HETATM   11  C8  UNL     1      23.830   2.811  51.451  1.00  0.00     0.140 A 
HETATM   12  C15 UNL     1      23.421   3.510  50.340  1.00  0.00     0.040 A 
HETATM   13  C16 UNL     1      23.394   2.715  49.087  1.00  0.00     0.212 C 
HETATM   14  O1  UNL     1      22.404   1.944  48.771  1.00  0.00    -0.385 OA
HETATM   15  C17 UNL     1      21.142   2.010  48.565  1.00  0.00     0.198 C 
HETATM   16  C18 UNL     1      20.630   2.894  47.454  1.00  0.00     0.298 C 
ENDROOT
BRANCH  11  17
HETATM   17  N4  UNL     1      24.238   1.466  51.652  1.00  0.00    -0.340 N 
HETATM   18  H11 UNL     1      25.075   0.920  51.368  1.00  0.00     0.167 HD
BRANCH  17  19
HETATM   19  C9  UNL     1      23.315   0.643  52.414  1.00  0.00     0.035 A 
HETATM   20  C10 UNL     1      23.672  -0.125  53.511  1.00  0.00     0.032 A 
HETATM   21  C11 UNL     1      22.742  -0.870  54.178  1.00  0.00     0.046 A 
HETATM   22  C12 UNL     1      21.405  -0.908  53.812  1.00  0.00     0.138 A 
HETATM   23  F1  UNL     1      20.493  -1.652  54.481  1.00  0.00    -0.204 F 
HETATM   24  C13 UNL     1      20.991  -0.151  52.709  1.00  0.00     0.074 A 
HETATM   25 CL1  UNL     1      19.340  -0.117  52.157  1.00  0.00    -0.081 Cl
HETATM   26  C14 UNL     1      21.978   0.579  52.078  1.00  0.00     0.056 A 
ENDBRANCH  17  19
ENDBRANCH  11  17
TORSDOF 2
ENDMDL
MODEL 6
REMARK VINA RESULT:      -7.4      9.054     12.054
REMARK  2 active torsions:
REMARK  status: ('A' for Active; 'I' for Inactive)
REMARK    1  A    between atoms: C8_11  and  N4_12 
REMARK    2  A    between atoms: N4_12  and  C9_13 
ROOT
HETATM    1  C1  UNL     1      30.358  11.634  46.177  1.00  0.00     0.310 C 
HETATM    2  N1  UNL     1      31.015  10.924  47.290  1.00  0.00     0.086 N 
HETATM    3  C2  UNL     1      30.709  11.768  48.457  1.00  0.00     0.275 C 
HETATM    4  C3  UNL     1      29.242  11.529  48.853  1.00  0.00     0.057 C 
HETATM    5  C4  UNL     1      29.169  10.096  49.357  1.00  0.00    -0.023 C 
HETATM    6  C5  UNL     1      29.397   9.144  48.466  1.00  0.00     0.028 C 
HETATM    7  C6  UNL     1      29.460   7.697  48.406  1.00  0.00     0.070 A 
HETATM    8  N2  UNL     1      28.631   6.700  48.116  1.00  0.00    -0.241 NA
HETATM    9  C7  UNL     1      28.961   5.409  48.151  1.00  0.00     0.235 A 
HETATM   10  N3  UNL     1      30.246   5.134  48.509  1.00  0.00    -0.224 NA
HETATM   11  C8  UNL     1      31.158   6.075  48.819  1.00  0.00     0.140 A 
HETATM   12  C15 UNL     1      30.802   7.403  48.781  1.00  0.00     0.040 A 
HETATM   13  C16 UNL     1      31.891   8.343  49.148  1.00  0.00     0.212 C 
HETATM   14  O1  UNL     1      32.796   8.725  48.306  1.00  0.00    -0.385 OA
HETATM   15  C17 UNL     1      32.891   9.312  47.173  1.00  0.00     0.198 C 
HETATM   16  C18 UNL     1      32.366  10.721  47.037  1.00  0.00     0.298 C 
ENDROOT
BRANCH  11  17
HETATM   17  N4  UNL     1      32.369   5.407  49.141  1.00  0.00    -0.340 N 
HETATM   18  H11 UNL     1      32.856   5.195  50.034  1.00  0.00     0.167 HD
BRANCH  17  19
HETATM   19  C9  UNL     1      33.115   4.891  48.008  1.00  0.00     0.035 A 
HETATM   20  C10 UNL     1      33.701   3.636  47.960  1.00  0.00     0.032 A 
HETATM   21  C11 UNL     1      34.384   3.222  46.853  1.00  0.00     0.046 A 
HETATM   22  C12 UNL     1      34.537   4.013  45.723  1.00  0.00     0.138 A 
HETATM   23  F1  UNL     1      35.219   3.591  44.632  1.00  0.00    -0.204 F 
HETATM   24  C13 UNL     1      33.966   5.291  45.719  1.00  0.00     0.074 A 
HETATM   25 CL1  UNL     1      34.088   6.372  44.361  1.00  0.00    -0.081 Cl
HETATM   26  C14 UNL     1      33.289   5.649  46.867  1.00  0.00     0.056 A 
ENDBRANCH  17  19
ENDBRANCH  11  17
TORSDOF 2
ENDMDL
MODEL 7
REMARK VINA RESULT:      -7.3      4.116      5.489
REMARK  2 active torsions:
REMARK  status: ('A' for Active; 'I' for Inactive)
REMARK    1  A    between atoms: C8_11  and  N4_12 
REMARK    2  A    between atoms: N4_12  and  C9_13 
ROOT
HETATM    1  C1  UNL     1      21.136   0.327  51.298  1.00  0.00     0.310 C 
HETATM    2  N1  UNL     1      21.658   1.445  52.107  1.00  0.00     0.086 N 
HETATM    3  C2  UNL     1      22.189   0.775  53.305  1.00  0.00     0.275 C 
HETATM    4  C3  UNL     1      23.521   0.104  52.934  1.00  0.00     0.057 C 
HETATM    5  C4  UNL     1      24.495   1.234  52.636  1.00  0.00    -0.023 C 
HETATM    6  C5  UNL     1      24.228   1.979  51.574  1.00  0.00     0.028 C 
HETATM    7  C6  UNL     1      24.780   3.122  50.875  1.00  0.00     0.070 A 
HETATM    8  N2  UNL     1      25.606   3.332  49.855  1.00  0.00    -0.241 NA
HETATM    9  C7  UNL     1      25.966   4.535  49.409  1.00  0.00     0.235 A 
HETATM   10  N3  UNL     1      25.427   5.598  50.067  1.00  0.00    -0.224 NA
HETATM   11  C8  UNL     1      24.581   5.487  51.110  1.00  0.00     0.140 A 
HETATM   12  C15 UNL     1      24.221   4.239  51.561  1.00  0.00     0.040 A 
HETATM   13  C16 UNL     1      23.290   4.246  52.717  1.00  0.00     0.212 C 
HETATM   14  O1  UNL     1      22.011   4.393  52.582  1.00  0.00    -0.385 OA
HETATM   15  C17 UNL     1      21.021   3.834  51.995  1.00  0.00     0.198 C 
HETATM   16  C18 UNL     1      20.681   2.404  52.340  1.00  0.00     0.298 C 
ENDROOT
BRANCH  11  17
HETATM   17  N4  UNL     1      24.243   6.801  51.528  1.00  0.00    -0.340 N 
HETATM   18  H11 UNL     1      24.544   7.402  52.320  1.00  0.00     0.167 HD
BRANCH  17  19
HETATM   19  C9  UNL     1      23.272   7.487  50.695  1.00  0.00     0.035 A 
HETATM   20  C10 UNL     1      21.902   7.278  50.753  1.00  0.00     0.032 A 
HETATM   21  C11 UNL     1      21.053   7.969  49.937  1.00  0.00     0.046 A 
HETATM   22  C12 UNL     1      21.491   8.905  49.012  1.00  0.00     0.138 A 
HETATM   23  F1  UNL     1      20.638   9.581  48.207  1.00  0.00    -0.204 F 
HETATM   24  C13 UNL     1      22.866   9.153  48.911  1.00  0.00     0.074 A 
HETATM   25 CL1  UNL     1      23.534  10.305  47.792  1.00  0.00    -0.081 Cl
HETATM   26  C14 UNL     1      23.671   8.424  49.763  1.00  0.00     0.056 A 
ENDBRANCH  17  19
ENDBRANCH  11  17
TORSDOF 2
ENDMDL
MODEL 8
REMARK VINA RESULT:      -7.2      3.058      6.708
REMARK  2 active torsions:
REMARK  status: ('A' for Active; 'I' for Inactive)
REMARK    1  A    between atoms: C8_11  and  N4_12 
REMARK    2  A    between atoms: N4_12  and  C9_13 
ROOT
HETATM    1  C1  UNL     1      17.216   2.733  51.177  1.00  0.00     0.310 C 
HETATM    2  N1  UNL     1      18.444   2.360  50.452  1.00  0.00     0.086 N 
HETATM    3  C2  UNL     1      18.197   2.860  49.089  1.00  0.00     0.275 C 
HETATM    4  C3  UNL     1      18.376   4.387  49.095  1.00  0.00     0.057 C 
HETATM    5  C4  UNL     1      19.853   4.639  49.359  1.00  0.00    -0.023 C 
HETATM    6  C5  UNL     1      20.310   4.279  50.547  1.00  0.00     0.028 C 
HETATM    7  C6  UNL     1      21.559   4.279  51.283  1.00  0.00     0.070 A 
HETATM    8  N2  UNL     1      22.180   5.080  52.143  1.00  0.00    -0.241 NA
HETATM    9  C7  UNL     1      23.375   4.832  52.679  1.00  0.00     0.235 A 
HETATM   10  N3  UNL     1      23.967   3.667  52.297  1.00  0.00    -0.224 NA
HETATM   11  C8  UNL     1      23.417   2.792  51.433  1.00  0.00     0.140 A 
HETATM   12  C15 UNL     1      22.185   3.062  50.886  1.00  0.00     0.040 A 
HETATM   13  C16 UNL     1      21.687   2.028  49.946  1.00  0.00     0.212 C 
HETATM   14  O1  UNL     1      21.096   0.948  50.345  1.00  0.00    -0.385 OA
HETATM   15  C17 UNL     1      20.075   0.588  51.026  1.00  0.00     0.198 C 
HETATM   16  C18 UNL     1      18.701   0.999  50.552  1.00  0.00     0.298 C 
ENDROOT
BRANCH  11  17
HETATM   17  N4  UNL     1      24.326   1.712  51.282  1.00  0.00    -0.340 N 
HETATM   18  H11 UNL     1      24.943   1.396  50.508  1.00  0.00     0.167 HD
BRANCH  17  19
HETATM   19  C9  UNL     1      24.451   0.838  52.435  1.00  0.00     0.035 A 
HETATM   20  C10 UNL     1      25.651   0.525  53.055  1.00  0.00     0.032 A 
HETATM   21  C11 UNL     1      25.684  -0.303  54.140  1.00  0.00     0.046 A 
HETATM   22  C12 UNL     1      24.545  -0.875  54.686  1.00  0.00     0.138 A 
HETATM   23  F1  UNL     1      24.591  -1.696  55.762  1.00  0.00    -0.204 F 
HETATM   24  C13 UNL     1      23.306  -0.593  54.097  1.00  0.00     0.074 A 
HETATM   25 CL1  UNL     1      21.809  -1.249  54.694  1.00  0.00    -0.081 Cl
HETATM   26  C14 UNL     1      23.340   0.250  53.005  1.00  0.00     0.056 A 
ENDBRANCH  17  19
ENDBRANCH  11  17
TORSDOF 2
ENDMDL
MODEL 9
REMARK VINA RESULT:      -7.1      6.933      9.236
REMARK  2 active torsions:
REMARK  status: ('A' for Active; 'I' for Inactive)
REMARK    1  A    between atoms: C8_11  and  N4_12 
REMARK    2  A    between atoms: N4_12  and  C9_13 
ROOT
HETATM    1  C1  UNL     1      31.887   9.135  45.158  1.00  0.00     0.310 C 
HETATM    2  N1  UNL     1      31.627   9.004  46.605  1.00  0.00     0.086 N 
HETATM    3  C2  UNL     1      32.757   9.721  47.217  1.00  0.00     0.275 C 
HETATM    4  C3  UNL     1      32.511  11.231  47.065  1.00  0.00     0.057 C 
HETATM    5  C4  UNL     1      31.306  11.553  47.935  1.00  0.00    -0.023 C 
HETATM    6  C5  UNL     1      30.152  11.022  47.565  1.00  0.00     0.028 C 
HETATM    7  C6  UNL     1      28.772  10.993  48.007  1.00  0.00     0.070 A 
HETATM    8  N2  UNL     1      27.657  11.673  47.758  1.00  0.00    -0.241 NA
HETATM    9  C7  UNL     1      26.480  11.432  48.335  1.00  0.00     0.235 A 
HETATM   10  N3  UNL     1      26.458  10.409  49.234  1.00  0.00    -0.224 NA
HETATM   11  C8  UNL     1      27.534   9.663  49.551  1.00  0.00     0.140 A 
HETATM   12  C15 UNL     1      28.742   9.925  48.949  1.00  0.00     0.040 A 
HETATM   13  C16 UNL     1      29.852   9.041  49.384  1.00  0.00     0.212 C 
HETATM   14  O1  UNL     1      30.039   7.861  48.888  1.00  0.00    -0.385 OA
HETATM   15  C17 UNL     1      30.251   7.299  47.757  1.00  0.00     0.198 C 
HETATM   16  C18 UNL     1      31.489   7.674  46.978  1.00  0.00     0.298 C 
ENDROOT
BRANCH  11  17
HETATM   17  N4  UNL     1      27.122   8.708  50.518  1.00  0.00    -0.340 N 
HETATM   18  H11 UNL     1      27.296   8.596  51.536  1.00  0.00     0.167 HD
BRANCH  17  19
HETATM   19  C9  UNL     1      26.270   7.644  50.017  1.00  0.00     0.035 A 
HETATM   20  C10 UNL     1      26.660   6.708  49.072  1.00  0.00     0.032 A 
HETATM   21  C11 UNL     1      25.799   5.733  48.654  1.00  0.00     0.046 A 
HETATM   22  C12 UNL     1      24.503   5.616  49.136  1.00  0.00     0.138 A 
HETATM   23  F1  UNL     1      23.659   4.646  48.712  1.00  0.00    -0.204 F 
HETATM   24  C13 UNL     1      24.058   6.538  50.091  1.00  0.00     0.074 A 
HETATM   25 CL1  UNL     1      22.456   6.491  50.770  1.00  0.00    -0.081 Cl
HETATM   26  C14 UNL     1      24.975   7.497  50.471  1.00  0.00     0.056 A 
ENDBRANCH  17  19
ENDBRANCH  11  17
TORSDOF 2
ENDMDL
