MODEL 1
REMARK VINA RESULT:      -9.3      0.000      0.000
REMARK  2 active torsions:
REMARK  status: ('A' for Active; 'I' for Inactive)
REMARK    1  A    between atoms: C11_13  and  C12_14 
REMARK    2  A    between atoms: C13_15  and  C14_16 
ROOT
HETATM    1  C1  UNL     1      22.899   6.294  50.813  1.00  0.00     0.043 C 
HETATM    2  C2  UNL     1      23.652   5.281  51.216  1.00  0.00     0.030 C 
HETATM    3  N1  UNL     1      24.997   4.885  51.058  1.00  0.00    -0.373 N 
HETATM    4  C3  UNL     1      24.793   3.434  51.017  1.00  0.00     0.080 C 
HETATM    5  C4  UNL     1      26.154   2.921  50.618  1.00  0.00     0.049 C 
HETATM    6  C5  UNL     1      23.702   2.884  50.165  1.00  0.00    -0.032 C 
HETATM    7  C6  UNL     1      22.891   1.747  50.366  1.00  0.00     0.092 C 
HETATM    8  N2  UNL     1      21.626   2.442  50.681  1.00  0.00    -0.382 N 
HETATM    9  C7  UNL     1      20.933   2.928  51.917  1.00  0.00     0.151 C 
HETATM   10  C8  UNL     1      21.827   4.178  52.328  1.00  0.00     0.007 C 
HETATM   11  C9  UNL     1      23.235   4.129  52.164  1.00  0.00    -0.004 C 
HETATM   12  C10 UNL     1      24.437   3.275  52.449  1.00  0.00    -0.014 C 
HETATM   13  C11 UNL     1      25.015   2.655  53.451  1.00  0.00     0.011 C 
HETATM   14  C20 UNL     1      20.921   2.904  49.467  1.00  0.00     0.080 C 
HETATM   15  C21 UNL     1      20.079   1.849  48.815  1.00  0.00     0.032 C 
HETATM   16  C22 UNL     1      21.894   3.532  48.516  1.00  0.00     0.029 C 
HETATM   17  C23 UNL     1      23.330   3.538  48.868  1.00  0.00     0.040 C 
HETATM   18  H3  UNL     1      25.792   5.532  50.989  1.00  0.00     0.161 HD
ENDROOT
BRANCH  13  19
HETATM   19  C12 UNL     1      26.233   1.898  53.464  1.00  0.00     0.001 C 
HETATM   20  C13 UNL     1      26.216   0.566  53.288  1.00  0.00     0.007 C 
BRANCH  20  21
HETATM   21  C14 UNL     1      27.328  -0.345  53.271  1.00  0.00    -0.058 A 
HETATM   22  C15 UNL     1      28.496   0.167  53.697  1.00  0.00     0.007 A 
HETATM   23  C16 UNL     1      29.636  -0.734  53.693  1.00  0.00    -0.003 A 
HETATM   24  C17 UNL     1      29.315  -1.933  53.262  1.00  0.00    -0.026 A 
HETATM   25  C18 UNL     1      28.106  -2.606  52.783  1.00  0.00     0.032 A 
HETATM   26  C19 UNL     1      26.942  -1.669  52.759  1.00  0.00     0.042 A 
ENDBRANCH  20  21
ENDBRANCH  13  19
TORSDOF 2
ENDMDL
MODEL 2
REMARK VINA RESULT:      -9.1      0.388      1.103
REMARK  2 active torsions:
REMARK  status: ('A' for Active; 'I' for Inactive)
REMARK    1  A    between atoms: C11_13  and  C12_14 
REMARK    2  A    between atoms: C13_15  and  C14_16 
ROOT
HETATM    1  C1  UNL     1      23.055   6.623  50.790  1.00  0.00     0.043 C 
HETATM    2  C2  UNL     1      23.757   5.553  51.136  1.00  0.00     0.030 C 
HETATM    3  N1  UNL     1      25.089   5.116  50.984  1.00  0.00    -0.373 N 
HETATM    4  C3  UNL     1      24.830   3.681  50.831  1.00  0.00     0.080 C 
HETATM    5  C4  UNL     1      26.181   3.143  50.429  1.00  0.00     0.049 C 
HETATM    6  C5  UNL     1      23.743   3.240  49.912  1.00  0.00    -0.032 C 
HETATM    7  C6  UNL     1      22.883   2.125  50.008  1.00  0.00     0.092 C 
HETATM    8  N2  UNL     1      21.638   2.846  50.340  1.00  0.00    -0.382 N 
HETATM    9  C7  UNL     1      20.930   3.268  51.591  1.00  0.00     0.151 C 
HETATM   10  C8  UNL     1      21.859   4.448  52.116  1.00  0.00     0.007 C 
HETATM   11  C9  UNL     1      23.269   4.354  51.985  1.00  0.00    -0.004 C 
HETATM   12  C10 UNL     1      24.428   3.433  52.237  1.00  0.00    -0.014 C 
HETATM   13  C11 UNL     1      24.952   2.718  53.205  1.00  0.00     0.011 C 
HETATM   14  C20 UNL     1      20.986   3.424  49.147  1.00  0.00     0.080 C 
HETATM   15  C21 UNL     1      20.123   2.455  48.397  1.00  0.00     0.032 C 
HETATM   16  C22 UNL     1      22.010   4.079  48.270  1.00  0.00     0.029 C 
HETATM   17  C23 UNL     1      23.435   4.001  48.658  1.00  0.00     0.040 C 
HETATM   18  H3  UNL     1      25.911   5.733  50.984  1.00  0.00     0.161 HD
ENDROOT
BRANCH  13  19
HETATM   19  C12 UNL     1      26.140   1.913  53.193  1.00  0.00     0.001 C 
HETATM   20  C13 UNL     1      26.060   0.572  53.221  1.00  0.00     0.007 C 
BRANCH  20  21
HETATM   21  C14 UNL     1      27.134  -0.385  53.215  1.00  0.00    -0.058 A 
HETATM   22  C15 UNL     1      26.817  -1.600  52.734  1.00  0.00     0.007 A 
HETATM   23  C16 UNL     1      27.884  -2.585  52.715  1.00  0.00    -0.003 A 
HETATM   24  C17 UNL     1      29.012  -2.100  53.184  1.00  0.00    -0.026 A 
HETATM   25  C18 UNL     1      29.479  -0.822  53.724  1.00  0.00     0.032 A 
HETATM   26  C19 UNL     1      28.372   0.181  53.771  1.00  0.00     0.042 A 
ENDBRANCH  20  21
ENDBRANCH  13  19
TORSDOF 2
ENDMDL
MODEL 3
REMARK VINA RESULT:      -8.1      1.629      3.547
REMARK  2 active torsions:
REMARK  status: ('A' for Active; 'I' for Inactive)
REMARK    1  A    between atoms: C11_13  and  C12_14 
REMARK    2  A    between atoms: C13_15  and  C14_16 
ROOT
HETATM    1  C1  UNL     1      21.046   2.566  48.329  1.00  0.00     0.043 C 
HETATM    2  C2  UNL     1      22.125   2.683  49.091  1.00  0.00     0.030 C 
HETATM    3  N1  UNL     1      22.650   2.025  50.222  1.00  0.00    -0.373 N 
HETATM    4  C3  UNL     1      23.264   3.181  50.881  1.00  0.00     0.080 C 
HETATM    5  C4  UNL     1      23.659   2.623  52.225  1.00  0.00     0.049 C 
HETATM    6  C5  UNL     1      22.482   4.444  50.994  1.00  0.00    -0.032 C 
HETATM    7  C6  UNL     1      22.928   5.783  50.971  1.00  0.00     0.092 C 
HETATM    8  N2  UNL     1      22.408   6.157  49.641  1.00  0.00    -0.382 N 
HETATM    9  C7  UNL     1      22.923   6.155  48.235  1.00  0.00     0.151 C 
HETATM   10  C8  UNL     1      22.939   4.602  47.890  1.00  0.00     0.007 C 
HETATM   11  C9  UNL     1      23.310   3.658  48.882  1.00  0.00    -0.004 C 
HETATM   12  C10 UNL     1      24.368   3.362  49.907  1.00  0.00    -0.014 C 
HETATM   13  C11 UNL     1      25.673   3.256  50.003  1.00  0.00     0.011 C 
HETATM   14  C20 UNL     1      20.969   6.491  49.673  1.00  0.00     0.080 C 
HETATM   15  C21 UNL     1      20.681   7.902  50.088  1.00  0.00     0.032 C 
HETATM   16  C22 UNL     1      20.228   5.485  50.502  1.00  0.00     0.029 C 
HETATM   17  C23 UNL     1      20.994   4.419  51.181  1.00  0.00     0.040 C 
HETATM   18  H3  UNL     1      22.546   1.021  50.414  1.00  0.00     0.161 HD
ENDROOT
BRANCH  13  19
HETATM   19  C12 UNL     1      26.470   2.915  51.145  1.00  0.00     0.001 C 
HETATM   20  C13 UNL     1      26.747   1.632  51.430  1.00  0.00     0.007 C 
BRANCH  20  21
HETATM   21  C14 UNL     1      27.521   1.109  52.524  1.00  0.00    -0.058 A 
HETATM   22  C15 UNL     1      27.405  -0.216  52.727  1.00  0.00     0.007 A 
HETATM   23  C16 UNL     1      28.180  -0.770  53.824  1.00  0.00    -0.003 A 
HETATM   24  C17 UNL     1      28.884   0.150  54.445  1.00  0.00    -0.026 A 
HETATM   25  C18 UNL     1      29.096   1.593  54.323  1.00  0.00     0.032 A 
HETATM   26  C19 UNL     1      28.276   2.166  53.213  1.00  0.00     0.042 A 
ENDBRANCH  20  21
ENDBRANCH  13  19
TORSDOF 2
ENDMDL
MODEL 4
REMARK VINA RESULT:      -7.9      5.781      8.230
REMARK  2 active torsions:
REMARK  status: ('A' for Active; 'I' for Inactive)
REMARK    1  A    between atoms: C11_13  and  C12_14 
REMARK    2  A    between atoms: C13_15  and  C14_16 
ROOT
HETATM    1  C1  UNL     1      27.909   9.258  44.952  1.00  0.00     0.043 C 
HETATM    2  C2  UNL     1      27.616   8.484  45.988  1.00  0.00     0.030 C 
HETATM    3  N1  UNL     1      26.440   8.037  46.626  1.00  0.00    -0.373 N 
HETATM    4  C3  UNL     1      26.936   8.017  48.006  1.00  0.00     0.080 C 
HETATM    5  C4  UNL     1      25.680   7.771  48.803  1.00  0.00     0.049 C 
HETATM    6  C5  UNL     1      27.712   9.185  48.508  1.00  0.00    -0.032 C 
HETATM    7  C6  UNL     1      28.773   9.225  49.438  1.00  0.00     0.092 C 
HETATM    8  N2  UNL     1      29.870   9.526  48.495  1.00  0.00    -0.382 N 
HETATM    9  C7  UNL     1      30.852   8.737  47.686  1.00  0.00     0.151 C 
HETATM   10  C8  UNL     1      29.926   8.119  46.550  1.00  0.00     0.007 C 
HETATM   11  C9  UNL     1      28.612   7.685  46.864  1.00  0.00    -0.004 C 
HETATM   12  C10 UNL     1      27.836   6.850  47.842  1.00  0.00    -0.014 C 
HETATM   13  C11 UNL     1      27.842   5.643  48.360  1.00  0.00     0.011 C 
HETATM   14  C20 UNL     1      29.934  10.961  48.148  1.00  0.00     0.080 C 
HETATM   15  C21 UNL     1      30.678  11.795  49.146  1.00  0.00     0.032 C 
HETATM   16  C22 UNL     1      28.557  11.484  47.874  1.00  0.00     0.029 C 
HETATM   17  C23 UNL     1      27.403  10.576  48.046  1.00  0.00     0.040 C 
HETATM   18  H3  UNL     1      25.555   7.836  46.144  1.00  0.00     0.161 HD
ENDROOT
BRANCH  13  19
HETATM   19  C12 UNL     1      26.926   5.058  49.296  1.00  0.00     0.001 C 
HETATM   20  C13 UNL     1      26.732   3.729  49.325  1.00  0.00     0.007 C 
BRANCH  20  21
HETATM   21  C14 UNL     1      25.860   2.974  50.186  1.00  0.00    -0.058 A 
HETATM   22  C15 UNL     1      24.545   3.153  49.970  1.00  0.00     0.007 A 
HETATM   23  C16 UNL     1      23.643   2.400  50.824  1.00  0.00    -0.003 A 
HETATM   24  C17 UNL     1      24.291   1.649  51.686  1.00  0.00    -0.026 A 
HETATM   25  C18 UNL     1      25.690   1.368  52.014  1.00  0.00     0.032 A 
HETATM   26  C19 UNL     1      26.616   2.166  51.155  1.00  0.00     0.042 A 
ENDBRANCH  20  21
ENDBRANCH  13  19
TORSDOF 2
ENDMDL
MODEL 5
REMARK VINA RESULT:      -7.8      3.425      5.381
REMARK  2 active torsions:
REMARK  status: ('A' for Active; 'I' for Inactive)
REMARK    1  A    between atoms: C11_13  and  C12_14 
REMARK    2  A    between atoms: C13_15  and  C14_16 
ROOT
HETATM    1  C1  UNL     1      20.880   2.245  52.597  1.00  0.00     0.043 C 
HETATM    2  C2  UNL     1      21.948   2.771  52.016  1.00  0.00     0.030 C 
HETATM    3  N1  UNL     1      22.793   3.877  52.245  1.00  0.00    -0.373 N 
HETATM    4  C3  UNL     1      23.079   4.225  50.850  1.00  0.00     0.080 C 
HETATM    5  C4  UNL     1      23.795   5.546  50.980  1.00  0.00     0.049 C 
HETATM    6  C5  UNL     1      21.952   4.279  49.876  1.00  0.00    -0.032 C 
HETATM    7  C6  UNL     1      21.939   3.967  48.500  1.00  0.00     0.092 C 
HETATM    8  N2  UNL     1      21.166   2.710  48.575  1.00  0.00    -0.382 N 
HETATM    9  C7  UNL     1      21.477   1.252  48.715  1.00  0.00     0.151 C 
HETATM   10  C8  UNL     1      21.949   1.157  50.232  1.00  0.00     0.007 C 
HETATM   11  C9  UNL     1      22.723   2.202  50.801  1.00  0.00    -0.004 C 
HETATM   12  C10 UNL     1      23.937   3.051  50.558  1.00  0.00    -0.014 C 
HETATM   13  C11 UNL     1      25.208   2.925  50.255  1.00  0.00     0.011 C 
HETATM   14  C20 UNL     1      19.712   2.950  48.678  1.00  0.00     0.080 C 
HETATM   15  C21 UNL     1      19.039   3.184  47.360  1.00  0.00     0.032 C 
HETATM   16  C22 UNL     1      19.441   4.046  49.664  1.00  0.00     0.029 C 
HETATM   17  C23 UNL     1      20.587   4.733  50.297  1.00  0.00     0.040 C 
HETATM   18  H3  UNL     1      23.041   4.240  53.174  1.00  0.00     0.161 HD
ENDROOT
BRANCH  13  19
HETATM   19  C12 UNL     1      26.207   3.943  50.106  1.00  0.00     0.001 C 
HETATM   20  C13 UNL     1      26.430   4.514  48.910  1.00  0.00     0.007 C 
BRANCH  20  21
HETATM   21  C14 UNL     1      27.382   5.540  48.577  1.00  0.00    -0.058 A 
HETATM   22  C15 UNL     1      28.647   5.116  48.406  1.00  0.00     0.007 A 
HETATM   23  C16 UNL     1      29.628   6.131  48.066  1.00  0.00    -0.003 A 
HETATM   24  C17 UNL     1      29.090   7.327  47.978  1.00  0.00    -0.026 A 
HETATM   25  C18 UNL     1      27.756   7.910  48.134  1.00  0.00     0.032 A 
HETATM   26  C19 UNL     1      26.754   6.868  48.514  1.00  0.00     0.042 A 
ENDBRANCH  20  21
ENDBRANCH  13  19
TORSDOF 2
ENDMDL
MODEL 6
REMARK VINA RESULT:      -7.5      6.903     10.259
REMARK  2 active torsions:
REMARK  status: ('A' for Active; 'I' for Inactive)
REMARK    1  A    between atoms: C11_13  and  C12_14 
REMARK    2  A    between atoms: C13_15  and  C14_16 
ROOT
HETATM    1  C1  UNL     1      33.008   7.619  45.242  1.00  0.00     0.043 C 
HETATM    2  C2  UNL     1      32.031   7.364  46.102  1.00  0.00     0.030 C 
HETATM    3  N1  UNL     1      31.000   8.102  46.720  1.00  0.00    -0.373 N 
HETATM    4  C3  UNL     1      30.988   7.414  48.015  1.00  0.00     0.080 C 
HETATM    5  C4  UNL     1      30.071   8.280  48.840  1.00  0.00     0.049 C 
HETATM    6  C5  UNL     1      32.284   7.141  48.697  1.00  0.00    -0.032 C 
HETATM    7  C6  UNL     1      32.655   6.057  49.520  1.00  0.00     0.092 C 
HETATM    8  N2  UNL     1      33.571   5.380  48.580  1.00  0.00    -0.382 N 
HETATM    9  C7  UNL     1      33.459   4.311  47.536  1.00  0.00     0.151 C 
HETATM   10  C8  UNL     1      32.677   5.063  46.373  1.00  0.00     0.007 C 
HETATM   11  C9  UNL     1      31.646   5.985  46.692  1.00  0.00    -0.004 C 
HETATM   12  C10 UNL     1      30.405   6.142  47.522  1.00  0.00    -0.014 C 
HETATM   13  C11 UNL     1      29.269   5.527  47.757  1.00  0.00     0.011 C 
HETATM   14  C20 UNL     1      34.911   6.001  48.555  1.00  0.00     0.080 C 
HETATM   15  C21 UNL     1      35.821   5.527  49.647  1.00  0.00     0.032 C 
HETATM   16  C22 UNL     1      34.783   7.494  48.520  1.00  0.00     0.029 C 
HETATM   17  C23 UNL     1      33.434   8.095  48.582  1.00  0.00     0.040 C 
HETATM   18  H3  UNL     1      30.497   8.883  46.282  1.00  0.00     0.161 HD
ENDROOT
BRANCH  13  19
HETATM   19  C12 UNL     1      28.188   5.923  48.613  1.00  0.00     0.001 C 
HETATM   20  C13 UNL     1      27.139   5.108  48.814  1.00  0.00     0.007 C 
BRANCH  20  21
HETATM   21  C14 UNL     1      25.977   5.337  49.630  1.00  0.00    -0.058 A 
HETATM   22  C15 UNL     1      25.299   4.231  49.986  1.00  0.00     0.007 A 
HETATM   23  C16 UNL     1      24.122   4.433  50.813  1.00  0.00    -0.003 A 
HETATM   24  C17 UNL     1      23.919   5.704  51.080  1.00  0.00    -0.026 A 
HETATM   25  C18 UNL     1      24.570   6.977  50.763  1.00  0.00     0.032 A 
HETATM   26  C19 UNL     1      25.763   6.769  49.887  1.00  0.00     0.042 A 
ENDBRANCH  20  21
ENDBRANCH  13  19
TORSDOF 2
ENDMDL
MODEL 7
REMARK VINA RESULT:      -7.5      3.166      4.748
REMARK  2 active torsions:
REMARK  status: ('A' for Active; 'I' for Inactive)
REMARK    1  A    between atoms: C11_13  and  C12_14 
REMARK    2  A    between atoms: C13_15  and  C14_16 
ROOT
HETATM    1  C1  UNL     1      20.963   8.352  49.604  1.00  0.00     0.043 C 
HETATM    2  C2  UNL     1      21.122   7.183  50.209  1.00  0.00     0.030 C 
HETATM    3  N1  UNL     1      21.950   6.667  51.227  1.00  0.00    -0.373 N 
HETATM    4  C3  UNL     1      22.116   5.307  50.705  1.00  0.00     0.080 C 
HETATM    5  C4  UNL     1      23.180   4.735  51.607  1.00  0.00     0.049 C 
HETATM    6  C5  UNL     1      22.432   5.125  49.261  1.00  0.00    -0.032 C 
HETATM    7  C6  UNL     1      22.054   4.087  48.382  1.00  0.00     0.092 C 
HETATM    8  N2  UNL     1      21.080   4.843  47.568  1.00  0.00    -0.382 N 
HETATM    9  C7  UNL     1      19.605   5.101  47.604  1.00  0.00     0.151 C 
HETATM   10  C8  UNL     1      19.471   6.090  48.843  1.00  0.00     0.007 C 
HETATM   11  C9  UNL     1      20.281   5.901  49.993  1.00  0.00    -0.004 C 
HETATM   12  C10 UNL     1      20.729   4.856  50.974  1.00  0.00    -0.014 C 
HETATM   13  C11 UNL     1      20.223   3.943  51.771  1.00  0.00     0.011 C 
HETATM   14  C20 UNL     1      21.734   5.670  46.534  1.00  0.00     0.080 C 
HETATM   15  C21 UNL     1      22.071   4.921  45.280  1.00  0.00     0.032 C 
HETATM   16  C22 UNL     1      22.920   6.378  47.117  1.00  0.00     0.029 C 
HETATM   17  C23 UNL     1      23.285   6.114  48.525  1.00  0.00     0.040 C 
HETATM   18  H3  UNL     1      22.282   7.204  52.039  1.00  0.00     0.161 HD
ENDROOT
BRANCH  13  19
HETATM   19  C12 UNL     1      20.900   3.055  52.672  1.00  0.00     0.001 C 
HETATM   20  C13 UNL     1      21.067   1.758  52.360  1.00  0.00     0.007 C 
BRANCH  20  21
HETATM   21  C14 UNL     1      21.713   0.732  53.134  1.00  0.00    -0.058 A 
HETATM   22  C15 UNL     1      20.928   0.111  54.033  1.00  0.00     0.007 A 
HETATM   23  C16 UNL     1      21.555  -0.932  54.826  1.00  0.00    -0.003 A 
HETATM   24  C17 UNL     1      22.822  -1.093  54.514  1.00  0.00    -0.026 A 
HETATM   25  C18 UNL     1      23.773  -0.497  53.575  1.00  0.00     0.032 A 
HETATM   26  C19 UNL     1      23.134   0.596  52.781  1.00  0.00     0.042 A 
ENDBRANCH  20  21
ENDBRANCH  13  19
TORSDOF 2
ENDMDL
MODEL 8
REMARK VINA RESULT:      -7.4      8.017     10.475
REMARK  2 active torsions:
REMARK  status: ('A' for Active; 'I' for Inactive)
REMARK    1  A    between atoms: C11_13  and  C12_14 
REMARK    2  A    between atoms: C13_15  and  C14_16 
ROOT
HETATM    1  C1  UNL     1      30.413  12.633  49.113  1.00  0.00     0.043 C 
HETATM    2  C2  UNL     1      29.905  11.456  48.776  1.00  0.00     0.030 C 
HETATM    3  N1  UNL     1      29.788  10.186  49.378  1.00  0.00    -0.373 N 
HETATM    4  C3  UNL     1      29.939   9.361  48.175  1.00  0.00     0.080 C 
HETATM    5  C4  UNL     1      30.061   7.970  48.744  1.00  0.00     0.049 C 
HETATM    6  C5  UNL     1      31.031   9.683  47.214  1.00  0.00    -0.032 C 
HETATM    7  C6  UNL     1      31.061   9.544  45.810  1.00  0.00     0.092 C 
HETATM    8  N2  UNL     1      30.993  10.976  45.454  1.00  0.00    -0.382 N 
HETATM    9  C7  UNL     1      29.913  11.968  45.148  1.00  0.00     0.151 C 
HETATM   10  C8  UNL     1      29.263  12.202  46.581  1.00  0.00     0.007 C 
HETATM   11  C9  UNL     1      29.123  11.115  47.483  1.00  0.00    -0.004 C 
HETATM   12  C10 UNL     1      28.627   9.701  47.575  1.00  0.00    -0.014 C 
HETATM   13  C11 UNL     1      27.553   8.993  47.309  1.00  0.00     0.011 C 
HETATM   14  C20 UNL     1      32.307  11.644  45.556  1.00  0.00     0.080 C 
HETATM   15  C21 UNL     1      33.172  11.472  44.345  1.00  0.00     0.032 C 
HETATM   16  C22 UNL     1      32.997  11.227  46.820  1.00  0.00     0.029 C 
HETATM   17  C23 UNL     1      32.345  10.224  47.689  1.00  0.00     0.040 C 
HETATM   18  H3  UNL     1      29.655  10.027  50.384  1.00  0.00     0.161 HD
ENDROOT
BRANCH  13  19
HETATM   19  C12 UNL     1      27.314   7.596  47.532  1.00  0.00     0.001 C 
HETATM   20  C13 UNL     1      26.432   7.191  48.460  1.00  0.00     0.007 C 
BRANCH  20  21
HETATM   21  C14 UNL     1      26.069   5.846  48.818  1.00  0.00    -0.058 A 
HETATM   22  C15 UNL     1      27.099   4.996  48.978  1.00  0.00     0.007 A 
HETATM   23  C16 UNL     1      26.760   3.632  49.342  1.00  0.00    -0.003 A 
HETATM   24  C17 UNL     1      25.462   3.460  49.457  1.00  0.00    -0.026 A 
HETATM   25  C18 UNL     1      24.261   4.285  49.316  1.00  0.00     0.032 A 
HETATM   26  C19 UNL     1      24.610   5.681  48.912  1.00  0.00     0.042 A 
ENDBRANCH  20  21
ENDBRANCH  13  19
TORSDOF 2
ENDMDL
MODEL 9
REMARK VINA RESULT:      -7.4      1.975      3.101
REMARK  2 active torsions:
REMARK  status: ('A' for Active; 'I' for Inactive)
REMARK    1  A    between atoms: C11_13  and  C12_14 
REMARK    2  A    between atoms: C13_15  and  C14_16 
ROOT
HETATM    1  C1  UNL     1      20.475   7.123  49.742  1.00  0.00     0.043 C 
HETATM    2  C2  UNL     1      21.169   6.121  50.262  1.00  0.00     0.030 C 
HETATM    3  N1  UNL     1      22.345   5.986  51.029  1.00  0.00    -0.373 N 
HETATM    4  C3  UNL     1      22.836   4.730  50.454  1.00  0.00     0.080 C 
HETATM    5  C4  UNL     1      24.218   4.614  51.047  1.00  0.00     0.049 C 
HETATM    6  C5  UNL     1      22.834   4.567  48.973  1.00  0.00    -0.032 C 
HETATM    7  C6  UNL     1      22.634   3.405  48.197  1.00  0.00     0.092 C 
HETATM    8  N2  UNL     1      21.293   3.730  47.671  1.00  0.00    -0.382 N 
HETATM    9  C7  UNL     1      19.876   3.476  48.082  1.00  0.00     0.151 C 
HETATM   10  C8  UNL     1      19.716   4.443  49.335  1.00  0.00     0.007 C 
HETATM   11  C9  UNL     1      20.795   4.618  50.239  1.00  0.00    -0.004 C 
HETATM   12  C10 UNL     1      21.800   3.856  51.055  1.00  0.00    -0.014 C 
HETATM   13  C11 UNL     1      21.849   2.882  51.934  1.00  0.00     0.011 C 
HETATM   14  C20 UNL     1      21.350   4.657  46.522  1.00  0.00     0.080 C 
HETATM   15  C21 UNL     1      21.608   3.982  45.209  1.00  0.00     0.032 C 
HETATM   16  C22 UNL     1      22.323   5.761  46.801  1.00  0.00     0.029 C 
HETATM   17  C23 UNL     1      23.088   5.734  48.066  1.00  0.00     0.040 C 
HETATM   18  H3  UNL     1      22.659   6.658  51.741  1.00  0.00     0.161 HD
ENDROOT
BRANCH  13  19
HETATM   19  C12 UNL     1      22.988   2.339  52.617  1.00  0.00     0.001 C 
HETATM   20  C13 UNL     1      23.673   1.308  52.095  1.00  0.00     0.007 C 
BRANCH  20  21
HETATM   21  C14 UNL     1      24.828   0.641  52.634  1.00  0.00    -0.058 A 
HETATM   22  C15 UNL     1      25.985   0.889  51.996  1.00  0.00     0.007 A 
HETATM   23  C16 UNL     1      27.167   0.229  52.522  1.00  0.00    -0.003 A 
HETATM   24  C17 UNL     1      26.891  -0.518  53.567  1.00  0.00    -0.026 A 
HETATM   25  C18 UNL     1      25.700  -0.863  54.346  1.00  0.00     0.032 A 
HETATM   26  C19 UNL     1      24.480  -0.208  53.784  1.00  0.00     0.042 A 
ENDBRANCH  20  21
ENDBRANCH  13  19
TORSDOF 2
ENDMDL
