MODEL 1
REMARK VINA RESULT:      -8.0      0.000      0.000
REMARK  3 active torsions:
REMARK  status: ('A' for Active; 'I' for Inactive)
REMARK    1  A    between atoms: C5_7  and  N3_8 
REMARK    2  A    between atoms: C9_15  and  C10_16 
REMARK    3  A    between atoms: C10_16  and  N7_17 
ROOT
HETATM    1  N3  UNL     1      23.181   3.449  51.601  1.00  0.00    -0.324 N 
HETATM    2  C6  UNL     1      23.310   4.774  52.098  1.00  0.00     0.233 C 
HETATM    3  N4  UNL     1      24.189   5.644  51.776  1.00  0.00    -0.170 NA
HETATM    4  N5  UNL     1      25.214   5.519  50.886  1.00  0.00    -0.287 N 
HETATM    5  C7  UNL     1      25.727   4.912  49.718  1.00  0.00     0.126 C 
HETATM    6  C8  UNL     1      26.151   3.716  50.055  1.00  0.00     0.103 C 
HETATM    7  N6  UNL     1      26.128   3.092  51.324  1.00  0.00    -0.376 N 
HETATM    8  C9  UNL     1      25.763   1.858  51.931  1.00  0.00     0.206 C 
HETATM    9  N8  UNL     1      24.432   1.449  51.699  1.00  0.00    -0.384 N 
HETATM   10  C16 UNL     1      23.368   2.198  52.238  1.00  0.00     0.249 C 
HETATM   11  H7  UNL     1      26.054   6.114  51.076  1.00  0.00     0.188 HD
HETATM   12  H10 UNL     1      26.528   3.865  51.896  1.00  0.00     0.161 HD
HETATM   13  H24 UNL     1      24.302   0.422  51.665  1.00  0.00     0.157 HD
ENDROOT
BRANCH   1  14
HETATM   14  C5  UNL     1      22.783   3.564  50.247  1.00  0.00     0.037 A 
HETATM   15  C4  UNL     1      22.022   4.692  49.905  1.00  0.00     0.045 A 
HETATM   16  C3  UNL     1      21.581   4.936  48.621  1.00  0.00     0.013 A 
HETATM   17  C2  UNL     1      20.838   5.917  47.971  1.00  0.00     0.152 A 
HETATM   18  C19 UNL     1      21.876   4.061  47.598  1.00  0.00     0.064 A 
HETATM   19  N2  UNL     1      20.727   5.599  46.648  1.00  0.00    -0.184 NA
HETATM   20  N1  UNL     1      21.364   4.463  46.422  1.00  0.00    -0.274 N 
HETATM   21  C1  UNL     1      21.452   3.827  45.120  1.00  0.00     0.180 C 
HETATM   22  C18 UNL     1      22.621   2.933  47.867  1.00  0.00     0.034 A 
HETATM   23  C17 UNL     1      23.027   2.753  49.165  1.00  0.00     0.032 A 
ENDBRANCH   1  14
BRANCH   8  24
HETATM   24  C10 UNL     1      26.071   1.953  53.442  1.00  0.00     0.318 C 
BRANCH  24  25
HETATM   25  N7  UNL     1      26.999   0.863  53.715  1.00  0.00     0.092 N 
HETATM   26  C11 UNL     1      28.262   1.325  54.194  1.00  0.00     0.272 C 
HETATM   27  C12 UNL     1      29.366   0.587  53.481  1.00  0.00     0.030 C 
HETATM   28  C13 UNL     1      29.130  -0.906  53.698  1.00  0.00     0.003 C 
HETATM   29  C14 UNL     1      27.836  -1.282  53.002  1.00  0.00     0.030 C 
HETATM   30  C15 UNL     1      27.079  -0.057  52.598  1.00  0.00     0.272 C 
ENDBRANCH  24  25
ENDBRANCH   8  24
TORSDOF 3
ENDMDL
MODEL 2
REMARK VINA RESULT:      -7.9      2.869      6.262
REMARK  3 active torsions:
REMARK  status: ('A' for Active; 'I' for Inactive)
REMARK    1  A    between atoms: C5_7  and  N3_8 
REMARK    2  A    between atoms: C9_15  and  C10_16 
REMARK    3  A    between atoms: C10_16  and  N7_17 
ROOT
HETATM    1  N3  UNL     1      22.511   4.805  51.638  1.00  0.00    -0.324 N 
HETATM    2  C6  UNL     1      21.364   5.273  50.944  1.00  0.00     0.233 C 
HETATM    3  N4  UNL     1      20.886   4.833  49.843  1.00  0.00    -0.170 NA
HETATM    4  N5  UNL     1      21.356   3.816  49.066  1.00  0.00    -0.287 N 
HETATM    5  C7  UNL     1      22.059   2.593  48.979  1.00  0.00     0.126 C 
HETATM    6  C8  UNL     1      23.340   2.877  49.015  1.00  0.00     0.103 C 
HETATM    7  N6  UNL     1      23.965   4.141  49.121  1.00  0.00    -0.376 N 
HETATM    8  C9  UNL     1      24.990   4.798  49.859  1.00  0.00     0.206 C 
HETATM    9  N8  UNL     1      24.842   4.747  51.262  1.00  0.00    -0.384 N 
HETATM   10  C16 UNL     1      23.766   5.418  51.876  1.00  0.00     0.249 C 
HETATM   11  H7  UNL     1      21.141   3.890  48.045  1.00  0.00     0.188 HD
HETATM   12  H10 UNL     1      23.434   4.651  48.385  1.00  0.00     0.161 HD
HETATM   13  H24 UNL     1      25.736   4.735  51.785  1.00  0.00     0.157 HD
ENDROOT
BRANCH   1  14
HETATM   14  C5  UNL     1      22.189   3.514  52.125  1.00  0.00     0.037 A 
HETATM   15  C4  UNL     1      23.265   2.662  52.418  1.00  0.00     0.045 A 
HETATM   16  C3  UNL     1      23.095   1.386  52.912  1.00  0.00     0.013 A 
HETATM   17  C2  UNL     1      23.913   0.326  53.293  1.00  0.00     0.152 A 
HETATM   18  C19 UNL     1      21.832   0.883  53.143  1.00  0.00     0.064 A 
HETATM   19  N2  UNL     1      23.139  -0.715  53.715  1.00  0.00    -0.184 NA
HETATM   20  N1  UNL     1      21.865  -0.372  53.623  1.00  0.00    -0.274 N 
HETATM   21  C1  UNL     1      20.762  -1.241  53.989  1.00  0.00     0.180 C 
HETATM   22  C18 UNL     1      20.732   1.670  52.876  1.00  0.00     0.034 A 
HETATM   23  C17 UNL     1      20.974   2.928  52.386  1.00  0.00     0.032 A 
ENDBRANCH   1  14
BRANCH   8  24
HETATM   24  C10 UNL     1      25.092   6.254  49.354  1.00  0.00     0.318 C 
BRANCH  24  25
HETATM   25  N7  UNL     1      26.512   6.479  49.114  1.00  0.00     0.092 N 
HETATM   26  C11 UNL     1      26.767   7.727  48.468  1.00  0.00     0.272 C 
HETATM   27  C12 UNL     1      27.764   7.518  47.357  1.00  0.00     0.030 C 
HETATM   28  C13 UNL     1      29.004   6.873  47.971  1.00  0.00     0.003 C 
HETATM   29  C14 UNL     1      28.617   5.495  48.472  1.00  0.00     0.030 C 
HETATM   30  C15 UNL     1      27.129   5.335  48.476  1.00  0.00     0.272 C 
ENDBRANCH  24  25
ENDBRANCH   8  24
TORSDOF 3
ENDMDL
MODEL 3
REMARK VINA RESULT:      -7.9      1.289      1.987
REMARK  3 active torsions:
REMARK  status: ('A' for Active; 'I' for Inactive)
REMARK    1  A    between atoms: C5_7  and  N3_8 
REMARK    2  A    between atoms: C9_15  and  C10_16 
REMARK    3  A    between atoms: C10_16  and  N7_17 
ROOT
HETATM    1  N3  UNL     1      23.119   4.697  50.866  1.00  0.00    -0.324 N 
HETATM    2  C6  UNL     1      23.550   5.911  51.463  1.00  0.00     0.233 C 
HETATM    3  N4  UNL     1      24.642   6.540  51.249  1.00  0.00    -0.170 NA
HETATM    4  N5  UNL     1      25.657   6.204  50.403  1.00  0.00    -0.287 N 
HETATM    5  C7  UNL     1      26.072   5.553  49.219  1.00  0.00     0.126 C 
HETATM    6  C8  UNL     1      26.152   4.271  49.488  1.00  0.00     0.103 C 
HETATM    7  N6  UNL     1      25.887   3.602  50.706  1.00  0.00    -0.376 N 
HETATM    8  C9  UNL     1      25.179   2.472  51.203  1.00  0.00     0.206 C 
HETATM    9  N8  UNL     1      23.805   2.438  50.878  1.00  0.00    -0.384 N 
HETATM   10  C16 UNL     1      22.936   3.405  51.418  1.00  0.00     0.249 C 
HETATM   11  H7  UNL     1      26.606   6.548  50.676  1.00  0.00     0.188 HD
HETATM   12  H10 UNL     1      26.434   4.210  51.351  1.00  0.00     0.161 HD
HETATM   13  H24 UNL     1      23.419   1.484  50.762  1.00  0.00     0.157 HD
ENDROOT
BRANCH   1  14
HETATM   14  C5  UNL     1      22.853   4.989  49.506  1.00  0.00     0.037 A 
HETATM   15  C4  UNL     1      22.649   3.895  48.652  1.00  0.00     0.045 A 
HETATM   16  C3  UNL     1      22.367   4.035  47.310  1.00  0.00     0.013 A 
HETATM   17  C2  UNL     1      22.120   3.194  46.229  1.00  0.00     0.152 A 
HETATM   18  C19 UNL     1      22.273   5.286  46.738  1.00  0.00     0.064 A 
HETATM   19  N2  UNL     1      21.900   3.944  45.111  1.00  0.00    -0.184 NA
HETATM   20  N1  UNL     1      21.993   5.225  45.425  1.00  0.00    -0.274 N 
HETATM   21  C1  UNL     1      21.815   6.308  44.475  1.00  0.00     0.180 C 
HETATM   22  C18 UNL     1      22.463   6.404  47.522  1.00  0.00     0.034 A 
HETATM   23  C17 UNL     1      22.740   6.190  48.849  1.00  0.00     0.032 A 
ENDBRANCH   1  14
BRANCH   8  24
HETATM   24  C10 UNL     1      25.401   2.395  52.730  1.00  0.00     0.318 C 
BRANCH  24  25
HETATM   25  N7  UNL     1      26.516   1.475  52.911  1.00  0.00     0.092 N 
HETATM   26  C11 UNL     1      26.555   0.457  51.910  1.00  0.00     0.272 C 
HETATM   27  C12 UNL     1      26.814  -0.876  52.564  1.00  0.00     0.030 C 
HETATM   28  C13 UNL     1      28.107  -0.746  53.367  1.00  0.00     0.003 C 
HETATM   29  C14 UNL     1      27.866   0.248  54.486  1.00  0.00     0.030 C 
HETATM   30  C15 UNL     1      26.581   0.983  54.271  1.00  0.00     0.272 C 
ENDBRANCH  24  25
ENDBRANCH   8  24
TORSDOF 3
ENDMDL
MODEL 4
REMARK VINA RESULT:      -7.8      1.768      7.390
REMARK  3 active torsions:
REMARK  status: ('A' for Active; 'I' for Inactive)
REMARK    1  A    between atoms: C5_7  and  N3_8 
REMARK    2  A    between atoms: C9_15  and  C10_16 
REMARK    3  A    between atoms: C10_16  and  N7_17 
ROOT
HETATM    1  N3  UNL     1      23.108   3.474  52.119  1.00  0.00    -0.324 N 
HETATM    2  C6  UNL     1      22.592   2.713  51.037  1.00  0.00     0.233 C 
HETATM    3  N4  UNL     1      23.170   2.446  49.928  1.00  0.00    -0.170 NA
HETATM    4  N5  UNL     1      24.412   2.821  49.512  1.00  0.00    -0.287 N 
HETATM    5  C7  UNL     1      25.738   3.178  49.847  1.00  0.00     0.126 C 
HETATM    6  C8  UNL     1      25.717   4.433  50.234  1.00  0.00     0.103 C 
HETATM    7  N6  UNL     1      24.615   5.315  50.323  1.00  0.00    -0.376 N 
HETATM    8  C9  UNL     1      24.025   6.243  51.226  1.00  0.00     0.206 C 
HETATM    9  N8  UNL     1      23.720   5.723  52.502  1.00  0.00    -0.384 N 
HETATM   10  C16 UNL     1      22.722   4.737  52.633  1.00  0.00     0.249 C 
HETATM   11  H7  UNL     1      24.535   2.910  48.477  1.00  0.00     0.188 HD
HETATM   12  H10 UNL     1      24.194   5.149  49.385  1.00  0.00     0.161 HD
HETATM   13  H24 UNL     1      23.790   6.412  53.271  1.00  0.00     0.157 HD
ENDROOT
BRANCH   1  14
HETATM   14  C5  UNL     1      24.158   2.710  52.684  1.00  0.00     0.037 A 
HETATM   15  C4  UNL     1      24.013   1.314  52.651  1.00  0.00     0.045 A 
HETATM   16  C3  UNL     1      24.965   0.451  53.151  1.00  0.00     0.013 A 
HETATM   17  C2  UNL     1      25.126  -0.926  53.271  1.00  0.00     0.152 A 
HETATM   18  C19 UNL     1      26.125   0.935  53.718  1.00  0.00     0.064 A 
HETATM   19  N2  UNL     1      26.320  -1.192  53.876  1.00  0.00    -0.184 NA
HETATM   20  N1  UNL     1      26.930  -0.051  54.148  1.00  0.00    -0.274 N 
HETATM   21  C1  UNL     1      28.227   0.042  54.794  1.00  0.00     0.180 C 
HETATM   22  C18 UNL     1      26.329   2.297  53.782  1.00  0.00     0.034 A 
HETATM   23  C17 UNL     1      25.341   3.097  53.265  1.00  0.00     0.032 A 
ENDBRANCH   1  14
BRANCH   8  24
HETATM   24  C10 UNL     1      22.777   6.851  50.549  1.00  0.00     0.318 C 
BRANCH  24  25
HETATM   25  N7  UNL     1      22.826   6.390  49.167  1.00  0.00     0.092 N 
HETATM   26  C11 UNL     1      23.111   7.444  48.248  1.00  0.00     0.272 C 
HETATM   27  C12 UNL     1      22.180   7.339  47.066  1.00  0.00     0.030 C 
HETATM   28  C13 UNL     1      22.347   5.941  46.477  1.00  0.00     0.003 C 
HETATM   29  C14 UNL     1      21.859   4.938  47.504  1.00  0.00     0.030 C 
HETATM   30  C15 UNL     1      21.661   5.598  48.832  1.00  0.00     0.272 C 
ENDBRANCH  24  25
ENDBRANCH   8  24
TORSDOF 3
ENDMDL
MODEL 5
REMARK VINA RESULT:      -7.7      2.104      3.775
REMARK  3 active torsions:
REMARK  status: ('A' for Active; 'I' for Inactive)
REMARK    1  A    between atoms: C5_7  and  N3_8 
REMARK    2  A    between atoms: C9_15  and  C10_16 
REMARK    3  A    between atoms: C10_16  and  N7_17 
ROOT
HETATM    1  N3  UNL     1      24.451   3.335  49.695  1.00  0.00    -0.324 N 
HETATM    2  C6  UNL     1      23.181   2.801  49.351  1.00  0.00     0.233 C 
HETATM    3  N4  UNL     1      22.059   3.032  49.918  1.00  0.00    -0.170 NA
HETATM    4  N5  UNL     1      21.804   3.840  50.986  1.00  0.00    -0.287 N 
HETATM    5  C7  UNL     1      22.157   4.977  51.747  1.00  0.00     0.126 C 
HETATM    6  C8  UNL     1      23.165   4.634  52.514  1.00  0.00     0.103 C 
HETATM    7  N6  UNL     1      23.822   3.385  52.609  1.00  0.00    -0.376 N 
HETATM    8  C9  UNL     1      25.135   2.836  52.626  1.00  0.00     0.206 C 
HETATM    9  N8  UNL     1      25.942   3.183  51.520  1.00  0.00    -0.384 N 
HETATM   10  C16 UNL     1      25.603   2.714  50.236  1.00  0.00     0.249 C 
HETATM   11  H7  UNL     1      20.979   3.570  51.571  1.00  0.00     0.188 HD
HETATM   12  H10 UNL     1      22.989   2.766  52.695  1.00  0.00     0.161 HD
HETATM   13  H24 UNL     1      26.952   3.251  51.735  1.00  0.00     0.157 HD
ENDROOT
BRANCH   1  14
HETATM   14  C5  UNL     1      24.407   4.714  49.375  1.00  0.00     0.037 A 
HETATM   15  C4  UNL     1      25.341   5.542  50.018  1.00  0.00     0.045 A 
HETATM   16  C3  UNL     1      25.420   6.900  49.788  1.00  0.00     0.013 A 
HETATM   17  C2  UNL     1      26.195   7.964  50.240  1.00  0.00     0.152 A 
HETATM   18  C19 UNL     1      24.564   7.514  48.898  1.00  0.00     0.064 A 
HETATM   19  N2  UNL     1      25.788   9.114  49.628  1.00  0.00    -0.184 NA
HETATM   20  N1  UNL     1      24.790   8.835  48.806  1.00  0.00    -0.274 N 
HETATM   21  C1  UNL     1      24.112   9.825  47.989  1.00  0.00     0.180 C 
HETATM   22  C18 UNL     1      23.624   6.757  48.233  1.00  0.00     0.034 A 
HETATM   23  C17 UNL     1      23.602   5.413  48.509  1.00  0.00     0.032 A 
ENDBRANCH   1  14
BRANCH   8  24
HETATM   24  C10 UNL     1      25.017   1.304  52.783  1.00  0.00     0.318 C 
BRANCH  24  25
HETATM   25  N7  UNL     1      26.378   0.834  53.010  1.00  0.00     0.092 N 
HETATM   26  C11 UNL     1      26.738  -0.241  52.143  1.00  0.00     0.272 C 
HETATM   27  C12 UNL     1      27.437  -1.312  52.943  1.00  0.00     0.030 C 
HETATM   28  C13 UNL     1      28.624  -0.656  53.643  1.00  0.00     0.003 C 
HETATM   29  C14 UNL     1      28.084   0.348  54.642  1.00  0.00     0.030 C 
HETATM   30  C15 UNL     1      26.624   0.583  54.415  1.00  0.00     0.272 C 
ENDBRANCH  24  25
ENDBRANCH   8  24
TORSDOF 3
ENDMDL
MODEL 6
REMARK VINA RESULT:      -7.6      2.269      7.281
REMARK  3 active torsions:
REMARK  status: ('A' for Active; 'I' for Inactive)
REMARK    1  A    between atoms: C5_7  and  N3_8 
REMARK    2  A    between atoms: C9_15  and  C10_16 
REMARK    3  A    between atoms: C10_16  and  N7_17 
ROOT
HETATM    1  N3  UNL     1      23.537   2.561  50.008  1.00  0.00    -0.324 N 
HETATM    2  C6  UNL     1      24.766   3.272  50.039  1.00  0.00     0.233 C 
HETATM    3  N4  UNL     1      25.121   4.176  50.871  1.00  0.00    -0.170 NA
HETATM    4  N5  UNL     1      24.416   4.677  51.924  1.00  0.00    -0.287 N 
HETATM    5  C7  UNL     1      23.433   4.479  52.920  1.00  0.00     0.126 C 
HETATM    6  C8  UNL     1      22.262   4.612  52.342  1.00  0.00     0.103 C 
HETATM    7  N6  UNL     1      21.969   4.899  50.988  1.00  0.00    -0.376 N 
HETATM    8  C9  UNL     1      21.137   4.442  49.928  1.00  0.00     0.206 C 
HETATM    9  N8  UNL     1      21.265   3.071  49.616  1.00  0.00    -0.384 N 
HETATM   10  C16 UNL     1      22.472   2.588  49.074  1.00  0.00     0.249 C 
HETATM   11  H7  UNL     1      24.645   5.663  52.193  1.00  0.00     0.188 HD
HETATM   12  H10 UNL     1      22.610   5.706  50.847  1.00  0.00     0.161 HD
HETATM   13  H24 UNL     1      20.395   2.630  49.269  1.00  0.00     0.157 HD
ENDROOT
BRANCH   1  14
HETATM   14  C5  UNL     1      23.530   1.719  51.147  1.00  0.00     0.037 A 
HETATM   15  C4  UNL     1      24.779   1.299  51.631  1.00  0.00     0.045 A 
HETATM   16  C3  UNL     1      24.919   0.492  52.739  1.00  0.00     0.013 A 
HETATM   17  C2  UNL     1      25.966  -0.083  53.453  1.00  0.00     0.152 A 
HETATM   18  C19 UNL     1      23.812   0.053  53.435  1.00  0.00     0.064 A 
HETATM   19  N2  UNL     1      25.463  -0.807  54.495  1.00  0.00    -0.184 NA
HETATM   20  N1  UNL     1      24.143  -0.721  54.482  1.00  0.00    -0.274 N 
HETATM   21  C1  UNL     1      23.279  -1.370  55.450  1.00  0.00     0.180 C 
HETATM   22  C18 UNL     1      22.555   0.430  53.012  1.00  0.00     0.034 A 
HETATM   23  C17 UNL     1      22.490   1.234  51.902  1.00  0.00     0.032 A 
ENDBRANCH   1  14
BRANCH   8  24
HETATM   24  C10 UNL     1      21.398   5.330  48.692  1.00  0.00     0.318 C 
BRANCH  24  25
HETATM   25  N7  UNL     1      22.369   6.324  49.130  1.00  0.00     0.092 N 
HETATM   26  C11 UNL     1      21.783   7.611  49.331  1.00  0.00     0.272 C 
HETATM   27  C12 UNL     1      22.668   8.663  48.714  1.00  0.00     0.030 C 
HETATM   28  C13 UNL     1      24.056   8.511  49.331  1.00  0.00     0.003 C 
HETATM   29  C14 UNL     1      24.615   7.168  48.903  1.00  0.00     0.030 C 
HETATM   30  C15 UNL     1      23.545   6.324  48.285  1.00  0.00     0.272 C 
ENDBRANCH  24  25
ENDBRANCH   8  24
TORSDOF 3
ENDMDL
MODEL 7
REMARK VINA RESULT:      -7.6      3.388      4.973
REMARK  3 active torsions:
REMARK  status: ('A' for Active; 'I' for Inactive)
REMARK    1  A    between atoms: C5_7  and  N3_8 
REMARK    2  A    between atoms: C9_15  and  C10_16 
REMARK    3  A    between atoms: C10_16  and  N7_17 
ROOT
HETATM    1  N3  UNL     1      22.544   4.219  49.134  1.00  0.00    -0.324 N 
HETATM    2  C6  UNL     1      21.616   5.257  49.414  1.00  0.00     0.233 C 
HETATM    3  N4  UNL     1      21.556   5.986  50.462  1.00  0.00    -0.170 NA
HETATM    4  N5  UNL     1      22.360   5.950  51.563  1.00  0.00    -0.287 N 
HETATM    5  C7  UNL     1      23.626   5.661  52.120  1.00  0.00     0.126 C 
HETATM    6  C8  UNL     1      23.690   4.361  52.288  1.00  0.00     0.103 C 
HETATM    7  N6  UNL     1      22.717   3.379  51.989  1.00  0.00    -0.376 N 
HETATM    8  C9  UNL     1      22.597   2.116  51.343  1.00  0.00     0.206 C 
HETATM    9  N8  UNL     1      23.050   2.084  50.007  1.00  0.00    -0.384 N 
HETATM   10  C16 UNL     1      22.364   2.819  49.020  1.00  0.00     0.249 C 
HETATM   11  H7  UNL     1      21.917   6.267  52.456  1.00  0.00     0.188 HD
HETATM   12  H10 UNL     1      21.887   3.828  52.432  1.00  0.00     0.161 HD
HETATM   13  H24 UNL     1      23.444   1.173  49.712  1.00  0.00     0.157 HD
ENDROOT
BRANCH   1  14
HETATM   14  C5  UNL     1      23.802   4.843  48.948  1.00  0.00     0.037 A 
HETATM   15  C4  UNL     1      23.798   6.099  48.320  1.00  0.00     0.045 A 
HETATM   16  C3  UNL     1      24.948   6.823  48.090  1.00  0.00     0.013 A 
HETATM   17  C2  UNL     1      25.281   8.047  47.516  1.00  0.00     0.152 A 
HETATM   18  C19 UNL     1      26.178   6.333  48.475  1.00  0.00     0.064 A 
HETATM   19  N2  UNL     1      26.633   8.226  47.581  1.00  0.00    -0.184 NA
HETATM   20  N1  UNL     1      27.179   7.176  48.169  1.00  0.00    -0.274 N 
HETATM   21  C1  UNL     1      28.603   7.028  48.406  1.00  0.00     0.180 C 
HETATM   22  C18 UNL     1      26.251   5.105  49.097  1.00  0.00     0.034 A 
HETATM   23  C17 UNL     1      25.068   4.439  49.295  1.00  0.00     0.032 A 
ENDBRANCH   1  14
BRANCH   8  24
HETATM   24  C10 UNL     1      21.128   1.653  51.455  1.00  0.00     0.318 C 
BRANCH  24  25
HETATM   25  N7  UNL     1      21.160   0.477  52.315  1.00  0.00     0.092 N 
HETATM   26  C11 UNL     1      20.278   0.591  53.432  1.00  0.00     0.272 C 
HETATM   27  C12 UNL     1      20.992   0.130  54.678  1.00  0.00     0.030 C 
HETATM   28  C13 UNL     1      21.486  -1.292  54.421  1.00  0.00     0.003 C 
HETATM   29  C14 UNL     1      22.527  -1.235  53.320  1.00  0.00     0.030 C 
HETATM   30  C15 UNL     1      22.518   0.105  52.655  1.00  0.00     0.272 C 
ENDBRANCH  24  25
ENDBRANCH   8  24
TORSDOF 3
ENDMDL
MODEL 8
REMARK VINA RESULT:      -7.5      2.675      6.872
REMARK  3 active torsions:
REMARK  status: ('A' for Active; 'I' for Inactive)
REMARK    1  A    between atoms: C5_7  and  N3_8 
REMARK    2  A    between atoms: C9_15  and  C10_16 
REMARK    3  A    between atoms: C10_16  and  N7_17 
ROOT
HETATM    1  N3  UNL     1      22.718   4.773  51.325  1.00  0.00    -0.324 N 
HETATM    2  C6  UNL     1      22.096   4.345  50.123  1.00  0.00     0.233 C 
HETATM    3  N4  UNL     1      22.658   3.837  49.093  1.00  0.00    -0.170 NA
HETATM    4  N5  UNL     1      23.983   3.584  48.893  1.00  0.00    -0.287 N 
HETATM    5  C7  UNL     1      25.246   3.276  49.445  1.00  0.00     0.126 C 
HETATM    6  C8  UNL     1      25.746   4.392  49.922  1.00  0.00     0.103 C 
HETATM    7  N6  UNL     1      25.182   5.689  49.918  1.00  0.00    -0.376 N 
HETATM    8  C9  UNL     1      24.950   6.785  50.796  1.00  0.00     0.206 C 
HETATM    9  N8  UNL     1      24.231   6.469  51.969  1.00  0.00    -0.384 N 
HETATM   10  C16 UNL     1      22.883   6.068  51.875  1.00  0.00     0.249 C 
HETATM   11  H7  UNL     1      24.302   3.606  47.897  1.00  0.00     0.188 HD
HETATM   12  H10 UNL     1      24.893   5.741  48.919  1.00  0.00     0.161 HD
HETATM   13  H24 UNL     1      24.484   7.044  52.792  1.00  0.00     0.157 HD
ENDROOT
BRANCH   1  14
HETATM   14  C5  UNL     1      23.184   3.604  51.976  1.00  0.00     0.037 A 
HETATM   15  C4  UNL     1      22.387   2.455  51.858  1.00  0.00     0.045 A 
HETATM   16  C3  UNL     1      22.728   1.247  52.428  1.00  0.00     0.013 A 
HETATM   17  C2  UNL     1      22.185  -0.033  52.500  1.00  0.00     0.152 A 
HETATM   18  C19 UNL     1      23.893   1.115  53.154  1.00  0.00     0.064 A 
HETATM   19  N2  UNL     1      23.011  -0.836  53.232  1.00  0.00    -0.184 NA
HETATM   20  N1  UNL     1      24.057  -0.131  53.630  1.00  0.00    -0.274 N 
HETATM   21  C1  UNL     1      25.140  -0.670  54.432  1.00  0.00     0.180 C 
HETATM   22  C18 UNL     1      24.721   2.206  53.307  1.00  0.00     0.034 A 
HETATM   23  C17 UNL     1      24.320   3.377  52.714  1.00  0.00     0.032 A 
ENDBRANCH   1  14
BRANCH   8  24
HETATM   24  C10 UNL     1      24.258   7.909  49.993  1.00  0.00     0.318 C 
BRANCH  24  25
HETATM   25  N7  UNL     1      25.342   8.726  49.462  1.00  0.00     0.092 N 
HETATM   26  C11 UNL     1      25.482   8.596  48.047  1.00  0.00     0.272 C 
HETATM   27  C12 UNL     1      26.941   8.439  47.703  1.00  0.00     0.030 C 
HETATM   28  C13 UNL     1      27.681   9.638  48.293  1.00  0.00     0.003 C 
HETATM   29  C14 UNL     1      27.579   9.556  49.803  1.00  0.00     0.030 C 
HETATM   30  C15 UNL     1      26.567   8.530  50.208  1.00  0.00     0.272 C 
ENDBRANCH  24  25
ENDBRANCH   8  24
TORSDOF 3
ENDMDL
MODEL 9
REMARK VINA RESULT:      -7.3      3.455      8.125
REMARK  3 active torsions:
REMARK  status: ('A' for Active; 'I' for Inactive)
REMARK    1  A    between atoms: C5_7  and  N3_8 
REMARK    2  A    between atoms: C9_15  and  C10_16 
REMARK    3  A    between atoms: C10_16  and  N7_17 
ROOT
HETATM    1  N3  UNL     1      22.599   1.684  50.607  1.00  0.00    -0.324 N 
HETATM    2  C6  UNL     1      23.066   2.589  49.618  1.00  0.00     0.233 C 
HETATM    3  N4  UNL     1      23.418   3.807  49.780  1.00  0.00    -0.170 NA
HETATM    4  N5  UNL     1      23.432   4.535  50.933  1.00  0.00    -0.287 N 
HETATM    5  C7  UNL     1      23.548   4.559  52.341  1.00  0.00     0.126 C 
HETATM    6  C8  UNL     1      22.388   4.191  52.833  1.00  0.00     0.103 C 
HETATM    7  N6  UNL     1      21.208   3.827  52.145  1.00  0.00    -0.376 N 
HETATM    8  C9  UNL     1      20.213   2.809  52.140  1.00  0.00     0.206 C 
HETATM    9  N8  UNL     1      20.705   1.493  52.005  1.00  0.00    -0.384 N 
HETATM   10  C16 UNL     1      21.323   1.099  50.802  1.00  0.00     0.249 C 
HETATM   11  H7  UNL     1      23.306   5.567  50.817  1.00  0.00     0.188 HD
HETATM   12  H10 UNL     1      21.156   4.621  51.474  1.00  0.00     0.161 HD
HETATM   13  H24 UNL     1      20.137   0.775  52.488  1.00  0.00     0.157 HD
ENDROOT
BRANCH   1  14
HETATM   14  C5  UNL     1      23.702   1.405  51.450  1.00  0.00     0.037 A 
HETATM   15  C4  UNL     1      23.465   0.555  52.542  1.00  0.00     0.045 A 
HETATM   16  C3  UNL     1      24.452   0.189  53.432  1.00  0.00     0.013 A 
HETATM   17  C2  UNL     1      24.549  -0.603  54.573  1.00  0.00     0.152 A 
HETATM   18  C19 UNL     1      25.742   0.653  53.284  1.00  0.00     0.064 A 
HETATM   19  N2  UNL     1      25.833  -0.578  55.035  1.00  0.00    -0.184 NA
HETATM   20  N1  UNL     1      26.561   0.191  54.244  1.00  0.00    -0.274 N 
HETATM   21  C1  UNL     1      27.977   0.443  54.437  1.00  0.00     0.180 C 
HETATM   22  C18 UNL     1      26.041   1.491  52.232  1.00  0.00     0.034 A 
HETATM   23  C17 UNL     1      25.012   1.815  51.384  1.00  0.00     0.032 A 
ENDBRANCH   1  14
BRANCH   8  24
HETATM   24  C10 UNL     1      19.184   3.145  51.038  1.00  0.00     0.318 C 
BRANCH  24  25
HETATM   25  N7  UNL     1      17.880   3.006  51.673  1.00  0.00     0.092 N 
HETATM   26  C11 UNL     1      17.240   1.773  51.346  1.00  0.00     0.272 C 
HETATM   27  C12 UNL     1      15.794   2.036  51.009  1.00  0.00     0.030 C 
HETATM   28  C13 UNL     1      15.172   2.760  52.201  1.00  0.00     0.003 C 
HETATM   29  C14 UNL     1      15.842   4.114  52.329  1.00  0.00     0.030 C 
HETATM   30  C15 UNL     1      17.061   4.183  51.464  1.00  0.00     0.272 C 
ENDBRANCH  24  25
ENDBRANCH   8  24
TORSDOF 3
ENDMDL
