MODEL 1
REMARK VINA RESULT:      -7.9      0.000      0.000
REMARK  5 active torsions:
REMARK  status: ('A' for Active; 'I' for Inactive)
REMARK    1  A    between atoms: C2_2  and  C3_3 
REMARK    2  A    between atoms: C3_3  and  C4_4 
REMARK    3  A    between atoms: C4_4  and  O1_5 
REMARK    4  A    between atoms: C7_8  and  C8_9 
REMARK    5  A    between atoms: C9_11  and  C10_12 
ROOT
HETATM    1  C10 UNL     1      21.068  -0.716  54.068  1.00  0.00     0.142 C 
HETATM    2  S1  UNL     1      22.325  -1.096  54.931  1.00  0.00    -0.002 SA
HETATM    3  N1  UNL     1      23.371  -1.426  55.628  1.00  0.00    -0.108 N 
ENDROOT
BRANCH   1   4
HETATM    4  C9  UNL     1      21.500  -0.014  52.780  1.00  0.00     0.205 A 
HETATM    5  C8  UNL     1      21.776   0.484  51.557  1.00  0.00     0.094 A 
HETATM    6  F1  UNL     1      20.914  -0.611  51.567  1.00  0.00    -0.359 F 
BRANCH   5   7
HETATM    7  C7  UNL     1      22.487   1.494  50.663  1.00  0.00    -0.007 C 
HETATM    8  C6  UNL     1      23.619   1.583  51.572  1.00  0.00    -0.000 C 
HETATM    9  C5  UNL     1      24.429   2.415  51.027  1.00  0.00     0.017 A 
HETATM   10  O1  UNL     1      25.417   2.416  51.947  1.00  0.00     0.000 OA
HETATM   11  C18 UNL     1      25.477   3.304  50.620  1.00  0.00     0.034 A 
HETATM   12  C17 UNL     1      25.092   4.309  49.905  1.00  0.00     0.119 A 
HETATM   13  O2  UNL     1      26.598   4.017  50.341  1.00  0.00     0.000 OA
HETATM   14  C16 UNL     1      23.682   4.167  49.768  1.00  0.00     0.086 A 
HETATM   15  O3  UNL     1      25.320   5.526  49.147  1.00  0.00    -0.375 OA
HETATM   16  C13 UNL     1      22.376   4.219  49.833  1.00  0.00     0.160 A 
HETATM   17  C15 UNL     1      23.257   5.147  50.784  1.00  0.00     0.178 A 
HETATM   18  N2  UNL     1      22.228   3.218  48.715  1.00  0.00    -0.390 N 
HETATM   19  N3  UNL     1      21.078   4.278  49.905  1.00  0.00    -0.248 NA
HETATM   20  C12 UNL     1      21.227   2.118  48.678  1.00  0.00     0.145 C 
HETATM   21  H17 UNL     1      22.764   3.243  47.869  1.00  0.00     0.156 HD
HETATM   22  C11 UNL     1      21.421   1.332  49.917  1.00  0.00     0.006 C 
HETATM   23  C14 UNL     1      20.866   5.291  50.952  1.00  0.00     0.224 A 
HETATM   24  N4  UNL     1      22.102   5.688  51.353  1.00  0.00    -0.272 NA
HETATM   25  C20 UNL     1      26.700   5.576  48.618  1.00  0.00     0.169 C 
HETATM   26  C19 UNL     1      27.219   4.188  49.057  1.00  0.00     0.028 C 
BRANCH  10  27
HETATM   27  C4  UNL     1      25.626   2.277  53.274  1.00  0.00     0.000 C 
BRANCH  27  28
HETATM   28  C3  UNL     1      26.886   1.471  53.601  1.00  0.00    -0.000 C 
BRANCH  28  29
HETATM   29  C2  UNL     1      27.017   0.303  52.667  1.00  0.00    -0.005 C 
HETATM   30  C1  UNL     1      26.105  -0.854  52.965  1.00  0.00     0.005 C 
ENDBRANCH  28  29
ENDBRANCH  27  28
ENDBRANCH  10  27
ENDBRANCH   5   7
ENDBRANCH   1   4
TORSDOF 5
ENDMDL
MODEL 2
REMARK VINA RESULT:      -7.7      3.260      5.778
REMARK  5 active torsions:
REMARK  status: ('A' for Active; 'I' for Inactive)
REMARK    1  A    between atoms: C2_2  and  C3_3 
REMARK    2  A    between atoms: C3_3  and  C4_4 
REMARK    3  A    between atoms: C4_4  and  O1_5 
REMARK    4  A    between atoms: C7_8  and  C8_9 
REMARK    5  A    between atoms: C9_11  and  C10_12 
ROOT
HETATM    1  C10 UNL     1      25.343   6.244  49.430  1.00  0.00     0.142 C 
HETATM    2  S1  UNL     1      26.577   5.381  48.984  1.00  0.00    -0.002 SA
HETATM    3  N1  UNL     1      27.608   4.670  48.636  1.00  0.00    -0.108 N 
ENDROOT
BRANCH   1   4
HETATM    4  C9  UNL     1      24.497   5.477  50.447  1.00  0.00     0.205 A 
HETATM    5  C8  UNL     1      23.774   4.943  51.452  1.00  0.00     0.094 A 
HETATM    6  F1  UNL     1      24.304   6.206  51.712  1.00  0.00    -0.359 F 
BRANCH   5   7
HETATM    7  C7  UNL     1      22.936   3.808  52.031  1.00  0.00    -0.007 C 
HETATM    8  C6  UNL     1      24.107   2.961  52.206  1.00  0.00    -0.000 C 
HETATM    9  C5  UNL     1      23.665   1.871  52.718  1.00  0.00     0.017 A 
HETATM   10  O1  UNL     1      24.819   1.180  52.829  1.00  0.00     0.000 OA
HETATM   11  C18 UNL     1      23.411   0.579  53.281  1.00  0.00     0.034 A 
HETATM   12  C17 UNL     1      22.244   0.088  53.018  1.00  0.00     0.119 A 
HETATM   13  O2  UNL     1      23.365  -0.633  53.894  1.00  0.00     0.000 OA
HETATM   14  C16 UNL     1      21.590   1.065  52.215  1.00  0.00     0.086 A 
HETATM   15  O3  UNL     1      21.217  -0.934  53.100  1.00  0.00    -0.375 OA
HETATM   16  C13 UNL     1      21.056   1.803  51.275  1.00  0.00     0.160 A 
HETATM   17  C15 UNL     1      21.788   0.440  50.894  1.00  0.00     0.178 A 
HETATM   18  N2  UNL     1      20.537   2.800  52.281  1.00  0.00    -0.390 N 
HETATM   19  N3  UNL     1      20.528   2.531  50.335  1.00  0.00    -0.248 NA
HETATM   20  C12 UNL     1      20.551   4.278  52.107  1.00  0.00     0.145 C 
HETATM   21  H17 UNL     1      20.087   2.544  53.139  1.00  0.00     0.156 HD
HETATM   22  C11 UNL     1      21.955   4.655  51.833  1.00  0.00     0.006 C 
HETATM   23  C14 UNL     1      20.829   1.748  49.125  1.00  0.00     0.224 A 
HETATM   24  N4  UNL     1      21.508   0.648  49.541  1.00  0.00    -0.272 NA
HETATM   25  C20 UNL     1      21.371  -1.750  54.323  1.00  0.00     0.169 C 
HETATM   26  C19 UNL     1      22.541  -1.009  55.009  1.00  0.00     0.028 C 
BRANCH  10  27
HETATM   27  C4  UNL     1      26.021   1.027  52.231  1.00  0.00     0.000 C 
BRANCH  27  28
HETATM   28  C3  UNL     1      26.540  -0.412  52.289  1.00  0.00    -0.000 C 
BRANCH  28  29
HETATM   29  C2  UNL     1      27.795  -0.484  53.110  1.00  0.00    -0.005 C 
HETATM   30  C1  UNL     1      27.684   0.101  54.491  1.00  0.00     0.005 C 
ENDBRANCH  28  29
ENDBRANCH  27  28
ENDBRANCH  10  27
ENDBRANCH   5   7
ENDBRANCH   1   4
TORSDOF 5
ENDMDL
MODEL 3
REMARK VINA RESULT:      -7.1      3.262      5.364
REMARK  5 active torsions:
REMARK  status: ('A' for Active; 'I' for Inactive)
REMARK    1  A    between atoms: C2_2  and  C3_3 
REMARK    2  A    between atoms: C3_3  and  C4_4 
REMARK    3  A    between atoms: C4_4  and  O1_5 
REMARK    4  A    between atoms: C7_8  and  C8_9 
REMARK    5  A    between atoms: C9_11  and  C10_12 
ROOT
HETATM    1  C10 UNL     1      19.825   3.695  46.939  1.00  0.00     0.142 C 
HETATM    2  S1  UNL     1      20.547   3.930  45.564  1.00  0.00    -0.002 SA
HETATM    3  N1  UNL     1      21.157   4.142  44.436  1.00  0.00    -0.108 N 
ENDROOT
BRANCH   1   4
HETATM    4  C9  UNL     1      20.799   3.098  47.956  1.00  0.00     0.205 A 
HETATM    5  C8  UNL     1      21.535   2.439  48.874  1.00  0.00     0.094 A 
HETATM    6  F1  UNL     1      20.310   1.850  48.567  1.00  0.00    -0.359 F 
BRANCH   5   7
HETATM    7  C7  UNL     1      22.796   2.309  49.723  1.00  0.00    -0.007 C 
HETATM    8  C6  UNL     1      22.121   1.457  50.691  1.00  0.00    -0.000 C 
HETATM    9  C5  UNL     1      23.008   1.173  51.571  1.00  0.00     0.017 A 
HETATM   10  O1  UNL     1      22.276   0.398  52.399  1.00  0.00     0.000 OA
HETATM   11  C18 UNL     1      23.816   0.727  52.667  1.00  0.00     0.034 A 
HETATM   12  C17 UNL     1      24.765   1.534  53.010  1.00  0.00     0.119 A 
HETATM   13  O2  UNL     1      24.457   0.134  53.708  1.00  0.00     0.000 OA
HETATM   14  C16 UNL     1      24.663   2.645  52.125  1.00  0.00     0.086 A 
HETATM   15  O3  UNL     1      25.902   1.932  53.820  1.00  0.00    -0.375 OA
HETATM   16  C13 UNL     1      24.450   3.784  51.516  1.00  0.00     0.160 A 
HETATM   17  C15 UNL     1      23.979   3.589  53.026  1.00  0.00     0.178 A 
HETATM   18  N2  UNL     1      25.149   3.306  50.267  1.00  0.00    -0.390 N 
HETATM   19  N3  UNL     1      24.233   4.919  50.919  1.00  0.00    -0.248 NA
HETATM   20  C12 UNL     1      24.694   3.573  48.877  1.00  0.00     0.145 C 
HETATM   21  H17 UNL     1      26.019   2.809  50.271  1.00  0.00     0.156 HD
HETATM   22  C11 UNL     1      23.302   3.077  48.789  1.00  0.00     0.006 C 
HETATM   23  C14 UNL     1      23.558   5.702  51.966  1.00  0.00     0.224 A 
HETATM   24  N4  UNL     1      23.473   4.892  53.053  1.00  0.00    -0.272 NA
HETATM   25  C20 UNL     1      26.593   0.754  54.387  1.00  0.00     0.169 C 
HETATM   26  C19 UNL     1      25.795  -0.388  53.718  1.00  0.00     0.028 C 
BRANCH  10  27
HETATM   27  C4  UNL     1      21.016   0.236  52.857  1.00  0.00     0.000 C 
BRANCH  27  28
HETATM   28  C3  UNL     1      20.961  -0.140  54.340  1.00  0.00    -0.000 C 
BRANCH  28  29
HETATM   29  C2  UNL     1      21.347  -1.578  54.530  1.00  0.00    -0.005 C 
HETATM   30  C1  UNL     1      22.594  -1.798  55.340  1.00  0.00     0.005 C 
ENDBRANCH  28  29
ENDBRANCH  27  28
ENDBRANCH  10  27
ENDBRANCH   5   7
ENDBRANCH   1   4
TORSDOF 5
ENDMDL
MODEL 4
REMARK VINA RESULT:      -7.1      3.186      5.422
REMARK  5 active torsions:
REMARK  status: ('A' for Active; 'I' for Inactive)
REMARK    1  A    between atoms: C2_2  and  C3_3 
REMARK    2  A    between atoms: C3_3  and  C4_4 
REMARK    3  A    between atoms: C4_4  and  O1_5 
REMARK    4  A    between atoms: C7_8  and  C8_9 
REMARK    5  A    between atoms: C9_11  and  C10_12 
ROOT
HETATM    1  C10 UNL     1      26.675   1.685  52.344  1.00  0.00     0.142 C 
HETATM    2  S1  UNL     1      26.500   0.143  52.585  1.00  0.00    -0.002 SA
HETATM    3  N1  UNL     1      26.350  -1.129  52.807  1.00  0.00    -0.108 N 
ENDROOT
BRANCH   1   4
HETATM    4  C9  UNL     1      25.324   2.394  52.435  1.00  0.00     0.205 A 
HETATM    5  C8  UNL     1      24.158   3.020  52.695  1.00  0.00     0.094 A 
HETATM    6  F1  UNL     1      24.920   2.703  53.818  1.00  0.00    -0.359 F 
BRANCH   5   7
HETATM    7  C7  UNL     1      22.858   3.662  52.219  1.00  0.00    -0.007 C 
HETATM    8  C6  UNL     1      22.108   2.435  52.442  1.00  0.00    -0.000 C 
HETATM    9  C5  UNL     1      20.900   2.709  52.108  1.00  0.00     0.017 A 
HETATM   10  O1  UNL     1      20.315   1.517  52.350  1.00  0.00     0.000 OA
HETATM   11  C18 UNL     1      19.504   2.776  51.795  1.00  0.00     0.034 A 
HETATM   12  C17 UNL     1      19.194   3.607  50.855  1.00  0.00     0.119 A 
HETATM   13  O2  UNL     1      18.156   2.694  51.649  1.00  0.00     0.000 OA
HETATM   14  C16 UNL     1      20.424   4.193  50.441  1.00  0.00     0.086 A 
HETATM   15  O3  UNL     1      18.257   4.284  49.977  1.00  0.00    -0.375 OA
HETATM   16  C13 UNL     1      21.537   4.561  49.859  1.00  0.00     0.160 A 
HETATM   17  C15 UNL     1      20.650   3.402  49.218  1.00  0.00     0.178 A 
HETATM   18  N2  UNL     1      21.781   5.636  50.888  1.00  0.00    -0.390 N 
HETATM   19  N3  UNL     1      22.643   4.919  49.273  1.00  0.00    -0.248 NA
HETATM   20  C12 UNL     1      23.104   5.967  51.483  1.00  0.00     0.145 C 
HETATM   21  H17 UNL     1      21.072   6.260  51.221  1.00  0.00     0.156 HD
HETATM   22  C11 UNL     1      23.629   4.710  52.062  1.00  0.00     0.006 C 
HETATM   23  C14 UNL     1      22.681   4.029  48.101  1.00  0.00     0.224 A 
HETATM   24  N4  UNL     1      21.565   3.257  48.172  1.00  0.00    -0.272 NA
HETATM   25  C20 UNL     1      16.905   4.334  50.573  1.00  0.00     0.169 C 
HETATM   26  C19 UNL     1      17.188   3.708  51.958  1.00  0.00     0.028 C 
BRANCH  10  27
HETATM   27  C4  UNL     1      20.572   0.191  52.338  1.00  0.00     0.000 C 
BRANCH  27  28
HETATM   28  C3  UNL     1      20.233  -0.498  53.663  1.00  0.00    -0.000 C 
BRANCH  28  29
HETATM   29  C2  UNL     1      21.391  -0.400  54.614  1.00  0.00    -0.005 C 
HETATM   30  C1  UNL     1      22.704  -0.884  54.066  1.00  0.00     0.005 C 
ENDBRANCH  28  29
ENDBRANCH  27  28
ENDBRANCH  10  27
ENDBRANCH   5   7
ENDBRANCH   1   4
TORSDOF 5
ENDMDL
MODEL 5
REMARK VINA RESULT:      -7.1      3.458      5.800
REMARK  5 active torsions:
REMARK  status: ('A' for Active; 'I' for Inactive)
REMARK    1  A    between atoms: C2_2  and  C3_3 
REMARK    2  A    between atoms: C3_3  and  C4_4 
REMARK    3  A    between atoms: C4_4  and  O1_5 
REMARK    4  A    between atoms: C7_8  and  C8_9 
REMARK    5  A    between atoms: C9_11  and  C10_12 
ROOT
HETATM    1  C10 UNL     1      26.797   7.362  48.590  1.00  0.00     0.142 C 
HETATM    2  S1  UNL     1      28.017   6.412  48.316  1.00  0.00    -0.002 SA
HETATM    3  N1  UNL     1      29.033   5.627  48.113  1.00  0.00    -0.108 N 
ENDROOT
BRANCH   1   4
HETATM    4  C9  UNL     1      25.754   6.652  49.454  1.00  0.00     0.205 A 
HETATM    5  C8  UNL     1      24.877   6.146  50.345  1.00  0.00     0.094 A 
HETATM    6  F1  UNL     1      25.616   7.238  50.799  1.00  0.00    -0.359 F 
BRANCH   5   7
HETATM    7  C7  UNL     1      23.802   5.133  50.725  1.00  0.00    -0.007 C 
HETATM    8  C6  UNL     1      24.795   4.118  51.042  1.00  0.00    -0.000 C 
HETATM    9  C5  UNL     1      24.125   3.092  51.422  1.00  0.00     0.017 A 
HETATM   10  O1  UNL     1      25.135   2.235  51.680  1.00  0.00     0.000 OA
HETATM   11  C18 UNL     1      23.600   1.837  51.872  1.00  0.00     0.034 A 
HETATM   12  C17 UNL     1      22.435   1.533  51.402  1.00  0.00     0.119 A 
HETATM   13  O2  UNL     1      23.282   0.631  52.408  1.00  0.00     0.000 OA
HETATM   14  C16 UNL     1      22.068   2.616  50.555  1.00  0.00     0.086 A 
HETATM   15  O3  UNL     1      21.274   0.672  51.268  1.00  0.00    -0.375 OA
HETATM   16  C13 UNL     1      21.806   3.451  49.580  1.00  0.00     0.160 A 
HETATM   17  C15 UNL     1      22.390   2.004  49.253  1.00  0.00     0.178 A 
HETATM   18  N2  UNL     1      21.276   4.487  50.540  1.00  0.00    -0.390 N 
HETATM   19  N3  UNL     1      21.549   4.273  48.606  1.00  0.00    -0.248 NA
HETATM   20  C12 UNL     1      21.528   5.950  50.445  1.00  0.00     0.145 C 
HETATM   21  H17 UNL     1      20.659   4.278  51.302  1.00  0.00     0.156 HD
HETATM   22  C11 UNL     1      22.998   6.121  50.417  1.00  0.00     0.006 C 
HETATM   23  C14 UNL     1      21.931   3.487  47.421  1.00  0.00     0.224 A 
HETATM   24  N4  UNL     1      22.369   2.288  47.885  1.00  0.00    -0.272 NA
HETATM   25  C20 UNL     1      21.106  -0.190  52.458  1.00  0.00     0.169 C 
HETATM   26  C19 UNL     1      22.241   0.351  53.356  1.00  0.00     0.028 C 
BRANCH  10  27
HETATM   27  C4  UNL     1      26.385   1.921  51.274  1.00  0.00     0.000 C 
BRANCH  27  28
HETATM   28  C3  UNL     1      27.152   1.077  52.296  1.00  0.00    -0.000 C 
BRANCH  28  29
HETATM   29  C2  UNL     1      26.757  -0.367  52.184  1.00  0.00    -0.005 C 
HETATM   30  C1  UNL     1      26.133  -0.951  53.421  1.00  0.00     0.005 C 
ENDBRANCH  28  29
ENDBRANCH  27  28
ENDBRANCH  10  27
ENDBRANCH   5   7
ENDBRANCH   1   4
TORSDOF 5
ENDMDL
MODEL 6
REMARK VINA RESULT:      -7.0      6.634      9.339
REMARK  5 active torsions:
REMARK  status: ('A' for Active; 'I' for Inactive)
REMARK    1  A    between atoms: C2_2  and  C3_3 
REMARK    2  A    between atoms: C3_3  and  C4_4 
REMARK    3  A    between atoms: C4_4  and  O1_5 
REMARK    4  A    between atoms: C7_8  and  C8_9 
REMARK    5  A    between atoms: C9_11  and  C10_12 
ROOT
HETATM    1  C10 UNL     1      25.740   5.111  49.771  1.00  0.00     0.142 C 
HETATM    2  S1  UNL     1      24.421   5.357  48.954  1.00  0.00    -0.002 SA
HETATM    3  N1  UNL     1      23.334   5.585  48.280  1.00  0.00    -0.108 N 
ENDROOT
BRANCH   1   4
HETATM    4  C9  UNL     1      26.962   5.511  48.942  1.00  0.00     0.205 A 
HETATM    5  C8  UNL     1      28.085   5.687  48.217  1.00  0.00     0.094 A 
HETATM    6  F1  UNL     1      27.846   4.376  48.626  1.00  0.00    -0.359 F 
BRANCH   5   7
HETATM    7  C7  UNL     1      29.043   6.591  47.448  1.00  0.00    -0.007 C 
HETATM    8  C6  UNL     1      30.157   5.678  47.656  1.00  0.00    -0.000 C 
HETATM    9  C5  UNL     1      31.158   6.222  47.068  1.00  0.00     0.017 A 
HETATM   10  O1  UNL     1      32.111   5.302  47.328  1.00  0.00     0.000 OA
HETATM   11  C18 UNL     1      32.405   6.631  46.493  1.00  0.00     0.034 A 
HETATM   12  C17 UNL     1      32.574   7.910  46.409  1.00  0.00     0.119 A 
HETATM   13  O2  UNL     1      33.628   6.813  45.930  1.00  0.00     0.000 OA
HETATM   14  C16 UNL     1      31.392   8.490  46.951  1.00  0.00     0.086 A 
HETATM   15  O3  UNL     1      33.326   9.100  46.054  1.00  0.00    -0.375 OA
HETATM   16  C13 UNL     1      30.454   9.058  47.665  1.00  0.00     0.160 A 
HETATM   17  C15 UNL     1      31.905   8.840  48.288  1.00  0.00     0.178 A 
HETATM   18  N2  UNL     1      29.473   8.996  46.521  1.00  0.00    -0.390 N 
HETATM   19  N3  UNL     1      29.527   9.624  48.382  1.00  0.00    -0.248 NA
HETATM   20  C12 UNL     1      28.031   8.653  46.647  1.00  0.00     0.145 C 
HETATM   21  H17 UNL     1      29.703   9.237  45.575  1.00  0.00     0.156 HD
HETATM   22  C11 UNL     1      27.972   7.335  47.318  1.00  0.00     0.006 C 
HETATM   23  C14 UNL     1      30.228   9.888  49.650  1.00  0.00     0.224 A 
HETATM   24  N4  UNL     1      31.496   9.427  49.488  1.00  0.00    -0.272 NA
HETATM   25  C20 UNL     1      34.279   8.823  44.957  1.00  0.00     0.169 C 
HETATM   26  C19 UNL     1      33.913   7.357  44.632  1.00  0.00     0.028 C 
BRANCH  10  27
HETATM   27  C4  UNL     1      32.482   4.399  48.262  1.00  0.00     0.000 C 
BRANCH  27  28
HETATM   28  C3  UNL     1      33.103   3.136  47.661  1.00  0.00    -0.000 C 
BRANCH  28  29
HETATM   29  C2  UNL     1      34.583   3.313  47.484  1.00  0.00    -0.005 C 
HETATM   30  C1  UNL     1      35.032   3.518  46.065  1.00  0.00     0.005 C 
ENDBRANCH  28  29
ENDBRANCH  27  28
ENDBRANCH  10  27
ENDBRANCH   5   7
ENDBRANCH   1   4
TORSDOF 5
ENDMDL
MODEL 7
REMARK VINA RESULT:      -6.9      2.626      4.449
REMARK  5 active torsions:
REMARK  status: ('A' for Active; 'I' for Inactive)
REMARK    1  A    between atoms: C2_2  and  C3_3 
REMARK    2  A    between atoms: C3_3  and  C4_4 
REMARK    3  A    between atoms: C4_4  and  O1_5 
REMARK    4  A    between atoms: C7_8  and  C8_9 
REMARK    5  A    between atoms: C9_11  and  C10_12 
ROOT
HETATM    1  C10 UNL     1      26.175   1.476  53.471  1.00  0.00     0.142 C 
HETATM    2  S1  UNL     1      26.807   0.064  53.201  1.00  0.00    -0.002 SA
HETATM    3  N1  UNL     1      27.311  -1.115  52.988  1.00  0.00    -0.108 N 
ENDROOT
BRANCH   1   4
HETATM    4  C9  UNL     1      24.908   1.661  52.636  1.00  0.00     0.205 A 
HETATM    5  C8  UNL     1      23.704   1.847  52.058  1.00  0.00     0.094 A 
HETATM    6  F1  UNL     1      23.705   1.908  53.450  1.00  0.00    -0.359 F 
BRANCH   5   7
HETATM    7  C7  UNL     1      22.827   1.945  50.813  1.00  0.00    -0.007 C 
HETATM    8  C6  UNL     1      23.556   3.106  50.326  1.00  0.00    -0.000 C 
HETATM    9  C5  UNL     1      22.998   3.417  49.214  1.00  0.00     0.017 A 
HETATM   10  O1  UNL     1      23.744   4.487  48.869  1.00  0.00     0.000 OA
HETATM   11  C18 UNL     1      22.541   3.951  47.965  1.00  0.00     0.034 A 
HETATM   12  C17 UNL     1      21.282   3.784  47.728  1.00  0.00     0.119 A 
HETATM   13  O2  UNL     1      22.308   4.518  46.753  1.00  0.00     0.000 OA
HETATM   14  C16 UNL     1      20.767   3.088  48.859  1.00  0.00     0.086 A 
HETATM   15  O3  UNL     1      20.084   3.919  46.920  1.00  0.00    -0.375 OA
HETATM   16  C13 UNL     1      20.207   2.688  49.973  1.00  0.00     0.160 A 
HETATM   17  C15 UNL     1      20.149   4.227  49.562  1.00  0.00     0.178 A 
HETATM   18  N2  UNL     1      20.568   1.249  49.698  1.00  0.00    -0.390 N 
HETATM   19  N3  UNL     1      19.648   2.300  51.081  1.00  0.00    -0.248 NA
HETATM   20  C12 UNL     1      21.056   0.280  50.716  1.00  0.00     0.145 C 
HETATM   21  H17 UNL     1      20.457   0.807  48.805  1.00  0.00     0.156 HD
HETATM   22  C11 UNL     1      22.247   0.896  51.343  1.00  0.00     0.006 C 
HETATM   23  C14 UNL     1      19.102   3.558  51.616  1.00  0.00     0.224 A 
HETATM   24  N4  UNL     1      19.430   4.526  50.722  1.00  0.00    -0.272 NA
HETATM   25  C20 UNL     1      20.418   4.042  45.484  1.00  0.00     0.169 C 
HETATM   26  C19 UNL     1      21.950   3.845  45.536  1.00  0.00     0.028 C 
BRANCH  10  27
HETATM   27  C4  UNL     1      24.435   5.514  49.411  1.00  0.00     0.000 C 
BRANCH  27  28
HETATM   28  C3  UNL     1      25.729   5.831  48.656  1.00  0.00    -0.000 C 
BRANCH  28  29
HETATM   29  C2  UNL     1      26.805   4.853  49.029  1.00  0.00    -0.005 C 
HETATM   30  C1  UNL     1      28.160   5.149  48.448  1.00  0.00     0.005 C 
ENDBRANCH  28  29
ENDBRANCH  27  28
ENDBRANCH  10  27
ENDBRANCH   5   7
ENDBRANCH   1   4
TORSDOF 5
ENDMDL
MODEL 8
REMARK VINA RESULT:      -6.9     10.232     12.640
REMARK  5 active torsions:
REMARK  status: ('A' for Active; 'I' for Inactive)
REMARK    1  A    between atoms: C2_2  and  C3_3 
REMARK    2  A    between atoms: C3_3  and  C4_4 
REMARK    3  A    between atoms: C4_4  and  O1_5 
REMARK    4  A    between atoms: C7_8  and  C8_9 
REMARK    5  A    between atoms: C9_11  and  C10_12 
ROOT
HETATM    1  C10 UNL     1      34.062   4.581  41.536  1.00  0.00     0.142 C 
HETATM    2  S1  UNL     1      32.937   3.778  40.789  1.00  0.00    -0.002 SA
HETATM    3  N1  UNL     1      32.012   3.094  40.184  1.00  0.00    -0.108 N 
ENDROOT
BRANCH   1   4
HETATM    4  C9  UNL     1      33.687   4.780  43.005  1.00  0.00     0.205 A 
HETATM    5  C8  UNL     1      33.500   4.849  44.339  1.00  0.00     0.094 A 
HETATM    6  F1  UNL     1      34.584   4.072  43.935  1.00  0.00    -0.359 F 
BRANCH   5   7
HETATM    7  C7  UNL     1      32.721   5.359  45.548  1.00  0.00    -0.007 C 
HETATM    8  C6  UNL     1      32.524   6.665  44.937  1.00  0.00    -0.000 C 
HETATM    9  C5  UNL     1      31.846   7.341  45.790  1.00  0.00     0.017 A 
HETATM   10  O1  UNL     1      31.732   8.510  45.125  1.00  0.00     0.000 OA
HETATM   11  C18 UNL     1      31.105   8.282  46.576  1.00  0.00     0.034 A 
HETATM   12  C17 UNL     1      31.217   8.134  47.855  1.00  0.00     0.119 A 
HETATM   13  O2  UNL     1      30.340   9.255  47.136  1.00  0.00     0.000 OA
HETATM   14  C16 UNL     1      32.090   7.024  48.037  1.00  0.00     0.086 A 
HETATM   15  O3  UNL     1      30.931   8.488  49.233  1.00  0.00    -0.375 OA
HETATM   16  C13 UNL     1      33.075   6.188  48.251  1.00  0.00     0.160 A 
HETATM   17  C15 UNL     1      33.330   7.759  48.344  1.00  0.00     0.178 A 
HETATM   18  N2  UNL     1      32.170   4.994  48.076  1.00  0.00    -0.390 N 
HETATM   19  N3  UNL     1      34.060   5.366  48.465  1.00  0.00    -0.248 NA
HETATM   20  C12 UNL     1      32.532   3.744  47.356  1.00  0.00     0.145 C 
HETATM   21  H17 UNL     1      31.256   4.924  48.481  1.00  0.00     0.156 HD
HETATM   22  C11 UNL     1      32.954   4.150  45.997  1.00  0.00     0.006 C 
HETATM   23  C14 UNL     1      35.178   6.281  48.747  1.00  0.00     0.224 A 
HETATM   24  N4  UNL     1      34.675   7.539  48.653  1.00  0.00    -0.272 NA
HETATM   25  C20 UNL     1      29.627   9.177  49.349  1.00  0.00     0.169 C 
HETATM   26  C19 UNL     1      29.130   9.080  47.889  1.00  0.00     0.028 C 
BRANCH  10  27
HETATM   27  C4  UNL     1      32.391   9.293  44.243  1.00  0.00     0.000 C 
BRANCH  27  28
HETATM   28  C3  UNL     1      33.467  10.162  44.900  1.00  0.00    -0.000 C 
BRANCH  28  29
HETATM   29  C2  UNL     1      32.840  11.330  45.604  1.00  0.00    -0.005 C 
HETATM   30  C1  UNL     1      33.111  11.401  47.081  1.00  0.00     0.005 C 
ENDBRANCH  28  29
ENDBRANCH  27  28
ENDBRANCH  10  27
ENDBRANCH   5   7
ENDBRANCH   1   4
TORSDOF 5
ENDMDL
MODEL 9
REMARK VINA RESULT:      -6.9      3.040      5.139
REMARK  5 active torsions:
REMARK  status: ('A' for Active; 'I' for Inactive)
REMARK    1  A    between atoms: C2_2  and  C3_3 
REMARK    2  A    between atoms: C3_3  and  C4_4 
REMARK    3  A    between atoms: C4_4  and  O1_5 
REMARK    4  A    between atoms: C7_8  and  C8_9 
REMARK    5  A    between atoms: C9_11  and  C10_12 
ROOT
HETATM    1  C10 UNL     1      17.959   2.808  49.257  1.00  0.00     0.142 C 
HETATM    2  S1  UNL     1      17.397   3.444  50.579  1.00  0.00    -0.002 SA
HETATM    3  N1  UNL     1      16.936   3.950  51.684  1.00  0.00    -0.108 N 
ENDROOT
BRANCH   1   4
HETATM    4  C9  UNL     1      19.463   2.562  49.384  1.00  0.00     0.205 A 
HETATM    5  C8  UNL     1      20.790   2.328  49.314  1.00  0.00     0.094 A 
HETATM    6  F1  UNL     1      20.124   2.319  48.090  1.00  0.00    -0.359 F 
BRANCH   5   7
HETATM    7  C7  UNL     1      22.148   2.162  49.988  1.00  0.00    -0.007 C 
HETATM    8  C6  UNL     1      21.565   1.431  51.104  1.00  0.00    -0.000 C 
HETATM    9  C5  UNL     1      22.550   1.142  51.873  1.00  0.00     0.017 A 
HETATM   10  O1  UNL     1      21.896   0.482  52.852  1.00  0.00     0.000 OA
HETATM   11  C18 UNL     1      23.476   0.713  52.878  1.00  0.00     0.034 A 
HETATM   12  C17 UNL     1      24.515   1.468  53.022  1.00  0.00     0.119 A 
HETATM   13  O2  UNL     1      24.220   0.146  53.863  1.00  0.00     0.000 OA
HETATM   14  C16 UNL     1      24.358   2.520  52.075  1.00  0.00     0.086 A 
HETATM   15  O3  UNL     1      25.779   1.834  53.633  1.00  0.00    -0.375 OA
HETATM   16  C13 UNL     1      24.134   3.628  51.414  1.00  0.00     0.160 A 
HETATM   17  C15 UNL     1      23.873   3.573  52.986  1.00  0.00     0.178 A 
HETATM   18  N2  UNL     1      24.615   3.015  50.122  1.00  0.00    -0.390 N 
HETATM   19  N3  UNL     1      23.907   4.733  50.766  1.00  0.00    -0.248 NA
HETATM   20  C12 UNL     1      23.983   3.219  48.791  1.00  0.00     0.145 C 
HETATM   21  H17 UNL     1      25.442   2.456  50.045  1.00  0.00     0.156 HD
HETATM   22  C11 UNL     1      22.564   2.824  48.936  1.00  0.00     0.006 C 
HETATM   23  C14 UNL     1      23.441   5.634  51.833  1.00  0.00     0.224 A 
HETATM   24  N4  UNL     1      23.461   4.908  52.981  1.00  0.00    -0.272 NA
HETATM   25  C20 UNL     1      26.467   0.649  54.190  1.00  0.00     0.169 C 
HETATM   26  C19 UNL     1      25.509  -0.472  53.728  1.00  0.00     0.028 C 
BRANCH  10  27
HETATM   27  C4  UNL     1      20.706   0.447  53.491  1.00  0.00     0.000 C 
BRANCH  27  28
HETATM   28  C3  UNL     1      19.875  -0.790  53.142  1.00  0.00    -0.000 C 
BRANCH  28  29
HETATM   29  C2  UNL     1      18.463  -0.398  52.815  1.00  0.00    -0.005 C 
HETATM   30  C1  UNL     1      18.149  -0.326  51.347  1.00  0.00     0.005 C 
ENDBRANCH  28  29
ENDBRANCH  27  28
ENDBRANCH  10  27
ENDBRANCH   5   7
ENDBRANCH   1   4
TORSDOF 5
ENDMDL
