MODEL 1
REMARK VINA RESULT:      -7.8      0.000      0.000
REMARK  4 active torsions:
REMARK  status: ('A' for Active; 'I' for Inactive)
REMARK    1  A    between atoms: C2_2  and  C3_3 
REMARK    2  A    between atoms: C3_3  and  N1_4 
REMARK    3  A    between atoms: C6_8  and  N3_9 
REMARK    4  A    between atoms: N3_9  and  C7_10 
ROOT
HETATM    1  C3  UNL     1      27.883   0.257  53.847  1.00  0.00     0.107 C 
HETATM    2  C4  UNL     1      27.021  -0.811  53.194  1.00  0.00     0.159 C 
HETATM    3  N2  UNL     1      25.905  -0.209  52.404  1.00  0.00    -0.386 N 
HETATM    4  C5  UNL     1      25.814   1.277  52.329  1.00  0.00     0.076 C 
HETATM    5  C6  UNL     1      26.513   1.950  51.366  1.00  0.00     0.155 C 
HETATM    6  N4  UNL     1      27.607   2.163  52.346  1.00  0.00    -0.206 NA
HETATM    7  C13 UNL     1      27.268   1.602  53.498  1.00  0.00     0.172 C 
HETATM    8  O1  UNL     1      26.313   2.560  54.092  1.00  0.00    -0.330 OA
HETATM    9  C14 UNL     1      25.036   2.192  53.336  1.00  0.00     0.238 C 
HETATM   10  H10 UNL     1      25.452  -1.131  52.085  1.00  0.00     0.159 HD
ENDROOT
BRANCH   5  11
HETATM   11  N3  UNL     1      26.690   2.471  50.052  1.00  0.00    -0.339 N 
HETATM   12  H11 UNL     1      26.995   1.786  49.339  1.00  0.00     0.167 HD
BRANCH  11  13
HETATM   13  C7  UNL     1      26.461   3.821  49.791  1.00  0.00     0.035 A 
HETATM   14  C8  UNL     1      27.232   4.558  48.915  1.00  0.00     0.032 A 
HETATM   15  C9  UNL     1      27.040   5.894  48.628  1.00  0.00     0.046 A 
HETATM   16  C10 UNL     1      25.997   6.527  49.272  1.00  0.00     0.138 A 
HETATM   17  F1  UNL     1      25.808   7.844  48.988  1.00  0.00    -0.204 F 
HETATM   18  C11 UNL     1      25.183   5.839  50.166  1.00  0.00     0.074 A 
HETATM   19 CL1  UNL     1      23.884   6.712  50.939  1.00  0.00    -0.081 Cl
HETATM   20  C12 UNL     1      25.409   4.490  50.428  1.00  0.00     0.056 A 
ENDBRANCH  11  13
ENDBRANCH   5  11
BRANCH   1  21
HETATM   21  C2  UNL     1      29.308   0.182  53.401  1.00  0.00     0.036 C 
HETATM   22  C1  UNL     1      29.753  -1.260  53.419  1.00  0.00     0.008 C 
ENDBRANCH   1  21
BRANCH   1  23
HETATM   23  N1  UNL     1      27.813   0.152  55.279  1.00  0.00    -0.414 N 
HETATM   24  H6  UNL     1      26.947  -0.279  55.651  1.00  0.00     0.151 HD
HETATM   25  H7  UNL     1      28.197   0.947  55.800  1.00  0.00     0.151 HD
ENDBRANCH   1  23
TORSDOF 4
ENDMDL
MODEL 2
REMARK VINA RESULT:      -7.5      3.838      6.647
REMARK  4 active torsions:
REMARK  status: ('A' for Active; 'I' for Inactive)
REMARK    1  A    between atoms: C2_2  and  C3_3 
REMARK    2  A    between atoms: C3_3  and  N1_4 
REMARK    3  A    between atoms: C6_8  and  N3_9 
REMARK    4  A    between atoms: N3_9  and  C7_10 
ROOT
HETATM    1  C3  UNL     1      24.210   4.429  50.671  1.00  0.00     0.107 C 
HETATM    2  C4  UNL     1      23.751   5.194  51.903  1.00  0.00     0.159 C 
HETATM    3  N2  UNL     1      23.808   4.345  53.129  1.00  0.00    -0.386 N 
HETATM    4  C5  UNL     1      24.318   2.950  53.000  1.00  0.00     0.076 C 
HETATM    5  C6  UNL     1      25.661   2.711  53.087  1.00  0.00     0.155 C 
HETATM    6  N4  UNL     1      25.742   2.774  51.607  1.00  0.00    -0.206 NA
HETATM    7  C13 UNL     1      24.533   3.014  51.119  1.00  0.00     0.172 C 
HETATM    8  O1  UNL     1      23.852   1.705  51.201  1.00  0.00    -0.330 OA
HETATM    9  C14 UNL     1      23.446   1.689  52.674  1.00  0.00     0.238 C 
HETATM   10  H10 UNL     1      23.423   5.076  53.818  1.00  0.00     0.159 HD
ENDROOT
BRANCH   5  11
HETATM   11  N3  UNL     1      26.867   2.472  53.807  1.00  0.00    -0.339 N 
HETATM   12  H11 UNL     1      27.177   3.241  54.426  1.00  0.00     0.167 HD
BRANCH  11  13
HETATM   13  C7  UNL     1      27.553   1.268  53.654  1.00  0.00     0.035 A 
HETATM   14  C8  UNL     1      28.872   1.103  54.027  1.00  0.00     0.032 A 
HETATM   15  C9  UNL     1      29.589  -0.069  53.894  1.00  0.00     0.046 A 
HETATM   16  C10 UNL     1      28.925  -1.147  53.346  1.00  0.00     0.138 A 
HETATM   17  F1  UNL     1      29.632  -2.302  53.214  1.00  0.00    -0.204 F 
HETATM   18  C11 UNL     1      27.596  -1.045  52.950  1.00  0.00     0.074 A 
HETATM   19 CL1  UNL     1      26.827  -2.455  52.266  1.00  0.00    -0.081 Cl
HETATM   20  C12 UNL     1      26.906   0.156  53.102  1.00  0.00     0.056 A 
ENDBRANCH  11  13
ENDBRANCH   5  11
BRANCH   1  21
HETATM   21  C2  UNL     1      25.391   5.072  50.016  1.00  0.00     0.036 C 
HETATM   22  C1  UNL     1      24.942   5.741  48.740  1.00  0.00     0.008 C 
ENDBRANCH   1  21
BRANCH   1  23
HETATM   23  N1  UNL     1      23.134   4.307  49.726  1.00  0.00    -0.414 N 
HETATM   24  H6  UNL     1      23.342   3.733  48.889  1.00  0.00     0.151 HD
HETATM   25  H7  UNL     1      22.574   5.154  49.581  1.00  0.00     0.151 HD
ENDBRANCH   1  23
TORSDOF 4
ENDMDL
MODEL 3
REMARK VINA RESULT:      -7.5      4.150      6.012
REMARK  4 active torsions:
REMARK  status: ('A' for Active; 'I' for Inactive)
REMARK    1  A    between atoms: C2_2  and  C3_3 
REMARK    2  A    between atoms: C3_3  and  N1_4 
REMARK    3  A    between atoms: C6_8  and  N3_9 
REMARK    4  A    between atoms: N3_9  and  C7_10 
ROOT
HETATM    1  C3  UNL     1      22.030   1.566  52.436  1.00  0.00     0.107 C 
HETATM    2  C4  UNL     1      22.198   1.028  51.024  1.00  0.00     0.159 C 
HETATM    3  N2  UNL     1      23.054   1.926  50.193  1.00  0.00    -0.386 N 
HETATM    4  C5  UNL     1      23.633   3.142  50.833  1.00  0.00     0.076 C 
HETATM    5  C6  UNL     1      24.824   3.053  51.498  1.00  0.00     0.155 C 
HETATM    6  N4  UNL     1      24.072   2.863  52.764  1.00  0.00    -0.206 NA
HETATM    7  C13 UNL     1      22.773   2.889  52.501  1.00  0.00     0.172 C 
HETATM    8  O1  UNL     1      22.473   4.327  52.335  1.00  0.00    -0.330 OA
HETATM    9  C14 UNL     1      22.947   4.549  50.898  1.00  0.00     0.238 C 
HETATM   10  H10 UNL     1      22.994   1.363  49.278  1.00  0.00     0.159 HD
ENDROOT
BRANCH   5  11
HETATM   11  N3  UNL     1      26.246   3.045  51.565  1.00  0.00    -0.339 N 
HETATM   12  H11 UNL     1      26.719   3.846  51.111  1.00  0.00     0.167 HD
BRANCH  11  13
HETATM   13  C7  UNL     1      26.917   2.004  52.207  1.00  0.00     0.035 A 
HETATM   14  C8  UNL     1      27.953   2.213  53.095  1.00  0.00     0.032 A 
HETATM   15  C9  UNL     1      28.644   1.214  53.750  1.00  0.00     0.046 A 
HETATM   16  C10 UNL     1      28.257  -0.085  53.490  1.00  0.00     0.138 A 
HETATM   17  F1  UNL     1      28.938  -1.069  54.137  1.00  0.00    -0.204 F 
HETATM   18  C11 UNL     1      27.220  -0.361  52.606  1.00  0.00     0.074 A 
HETATM   19 CL1  UNL     1      26.792  -2.031  52.332  1.00  0.00    -0.081 Cl
HETATM   20  C12 UNL     1      26.547   0.677  51.964  1.00  0.00     0.056 A 
ENDBRANCH  11  13
ENDBRANCH   5  11
BRANCH   1  21
HETATM   21  C2  UNL     1      22.537   0.609  53.468  1.00  0.00     0.036 C 
HETATM   22  C1  UNL     1      22.333  -0.802  52.972  1.00  0.00     0.008 C 
ENDBRANCH   1  21
BRANCH   1  23
HETATM   23  N1  UNL     1      20.651   1.875  52.694  1.00  0.00    -0.414 N 
HETATM   24  H6  UNL     1      20.234   1.398  53.515  1.00  0.00     0.151 HD
HETATM   25  H7  UNL     1      20.057   1.975  51.865  1.00  0.00     0.151 HD
ENDBRANCH   1  23
TORSDOF 4
ENDMDL
MODEL 4
REMARK VINA RESULT:      -7.3      4.148      5.278
REMARK  4 active torsions:
REMARK  status: ('A' for Active; 'I' for Inactive)
REMARK    1  A    between atoms: C2_2  and  C3_3 
REMARK    2  A    between atoms: C3_3  and  N1_4 
REMARK    3  A    between atoms: C6_8  and  N3_9 
REMARK    4  A    between atoms: N3_9  and  C7_10 
ROOT
HETATM    1  C3  UNL     1      28.602   0.143  53.619  1.00  0.00     0.107 C 
HETATM    2  C4  UNL     1      28.208   0.184  55.087  1.00  0.00     0.159 C 
HETATM    3  N2  UNL     1      26.828   0.724  55.271  1.00  0.00    -0.386 N 
HETATM    4  C5  UNL     1      26.046   1.091  54.056  1.00  0.00     0.076 C 
HETATM    5  C6  UNL     1      25.307   0.138  53.413  1.00  0.00     0.155 C 
HETATM    6  N4  UNL     1      26.449  -0.087  52.492  1.00  0.00    -0.206 NA
HETATM    7  C13 UNL     1      27.441   0.723  52.829  1.00  0.00     0.172 C 
HETATM    8  O1  UNL     1      27.031   2.034  52.282  1.00  0.00    -0.330 OA
HETATM    9  C14 UNL     1      26.052   2.496  53.362  1.00  0.00     0.238 C 
HETATM   10  H10 UNL     1      26.806   0.678  56.345  1.00  0.00     0.159 HD
ENDROOT
BRANCH   5  11
HETATM   11  N3  UNL     1      24.137  -0.652  53.223  1.00  0.00    -0.339 N 
HETATM   12  H11 UNL     1      24.280  -1.676  53.258  1.00  0.00     0.167 HD
BRANCH  11  13
HETATM   13  C7  UNL     1      22.902  -0.043  53.005  1.00  0.00     0.035 A 
HETATM   14  C8  UNL     1      22.774   1.245  52.524  1.00  0.00     0.032 A 
HETATM   15  C9  UNL     1      21.574   1.886  52.294  1.00  0.00     0.046 A 
HETATM   16  C10 UNL     1      20.424   1.174  52.570  1.00  0.00     0.138 A 
HETATM   17  F1  UNL     1      19.241   1.806  52.343  1.00  0.00    -0.204 F 
HETATM   18  C11 UNL     1      20.486  -0.127  53.057  1.00  0.00     0.074 A 
HETATM   19 CL1  UNL     1      18.986  -0.960  53.380  1.00  0.00    -0.081 Cl
HETATM   20  C12 UNL     1      21.719  -0.739  53.275  1.00  0.00     0.056 A 
ENDBRANCH  11  13
ENDBRANCH   5  11
BRANCH   1  21
HETATM   21  C2  UNL     1      28.928  -1.243  53.161  1.00  0.00     0.036 C 
HETATM   22  C1  UNL     1      30.202  -1.694  53.832  1.00  0.00     0.008 C 
ENDBRANCH   1  21
BRANCH   1  23
HETATM   23  N1  UNL     1      29.719   1.014  53.374  1.00  0.00    -0.414 N 
HETATM   24  H6  UNL     1      29.616   1.651  52.563  1.00  0.00     0.151 HD
HETATM   25  H7  UNL     1      30.644   0.599  53.525  1.00  0.00     0.151 HD
ENDBRANCH   1  23
TORSDOF 4
ENDMDL
MODEL 5
REMARK VINA RESULT:      -7.0      3.626      6.341
REMARK  4 active torsions:
REMARK  status: ('A' for Active; 'I' for Inactive)
REMARK    1  A    between atoms: C2_2  and  C3_3 
REMARK    2  A    between atoms: C3_3  and  N1_4 
REMARK    3  A    between atoms: C6_8  and  N3_9 
REMARK    4  A    between atoms: N3_9  and  C7_10 
ROOT
HETATM    1  C3  UNL     1      24.465   4.354  49.850  1.00  0.00     0.107 C 
HETATM    2  C4  UNL     1      24.572   5.260  51.067  1.00  0.00     0.159 C 
HETATM    3  N2  UNL     1      23.736   4.760  52.199  1.00  0.00    -0.386 N 
HETATM    4  C5  UNL     1      22.984   3.486  52.012  1.00  0.00     0.076 C 
HETATM    5  C6  UNL     1      23.597   2.294  52.279  1.00  0.00     0.155 C 
HETATM    6  N4  UNL     1      23.947   2.184  50.841  1.00  0.00    -0.206 NA
HETATM    7  C13 UNL     1      23.485   3.248  50.202  1.00  0.00     0.172 C 
HETATM    8  O1  UNL     1      22.041   2.972  50.050  1.00  0.00    -0.330 OA
HETATM    9  C14 UNL     1      21.531   3.365  51.437  1.00  0.00     0.238 C 
HETATM   10  H10 UNL     1      23.954   5.555  52.890  1.00  0.00     0.159 HD
ENDROOT
BRANCH   5  11
HETATM   11  N3  UNL     1      24.018   1.245  53.146  1.00  0.00    -0.339 N 
HETATM   12  H11 UNL     1      23.275   0.826  53.732  1.00  0.00     0.167 HD
BRANCH  11  13
HETATM   13  C7  UNL     1      25.354   0.846  53.173  1.00  0.00     0.035 A 
HETATM   14  C8  UNL     1      25.755  -0.451  52.919  1.00  0.00     0.032 A 
HETATM   15  C9  UNL     1      27.063  -0.889  52.935  1.00  0.00     0.046 A 
HETATM   16  C10 UNL     1      28.032   0.050  53.228  1.00  0.00     0.138 A 
HETATM   17  F1  UNL     1      29.321  -0.383  53.244  1.00  0.00    -0.204 F 
HETATM   18  C11 UNL     1      27.692   1.372  53.493  1.00  0.00     0.074 A 
HETATM   19 CL1  UNL     1      28.976   2.498  53.854  1.00  0.00    -0.081 Cl
HETATM   20  C12 UNL     1      26.358   1.775  53.466  1.00  0.00     0.056 A 
ENDBRANCH  11  13
ENDBRANCH   5  11
BRANCH   1  21
HETATM   21  C2  UNL     1      25.792   3.793  49.448  1.00  0.00     0.036 C 
HETATM   22  C1  UNL     1      26.683   4.921  48.987  1.00  0.00     0.008 C 
ENDBRANCH   1  21
BRANCH   1  23
HETATM   23  N1  UNL     1      23.880   5.064  48.746  1.00  0.00    -0.414 N 
HETATM   24  H6  UNL     1      24.515   5.241  47.946  1.00  0.00     0.151 HD
HETATM   25  H7  UNL     1      23.229   5.814  48.997  1.00  0.00     0.151 HD
ENDBRANCH   1  23
TORSDOF 4
ENDMDL
MODEL 6
REMARK VINA RESULT:      -6.9      4.838      6.472
REMARK  4 active torsions:
REMARK  status: ('A' for Active; 'I' for Inactive)
REMARK    1  A    between atoms: C2_2  and  C3_3 
REMARK    2  A    between atoms: C3_3  and  N1_4 
REMARK    3  A    between atoms: C6_8  and  N3_9 
REMARK    4  A    between atoms: N3_9  and  C7_10 
ROOT
HETATM    1  C3  UNL     1      25.885   2.122  52.182  1.00  0.00     0.107 C 
HETATM    2  C4  UNL     1      25.383   2.623  53.527  1.00  0.00     0.159 C 
HETATM    3  N2  UNL     1      24.234   3.564  53.370  1.00  0.00    -0.386 N 
HETATM    4  C5  UNL     1      23.730   3.838  51.993  1.00  0.00     0.076 C 
HETATM    5  C6  UNL     1      22.793   3.011  51.439  1.00  0.00     0.155 C 
HETATM    6  N4  UNL     1      23.889   2.255  50.782  1.00  0.00    -0.206 NA
HETATM    7  C13 UNL     1      25.049   2.804  51.112  1.00  0.00     0.172 C 
HETATM    8  O1  UNL     1      25.130   4.006  50.257  1.00  0.00    -0.330 OA
HETATM    9  C14 UNL     1      24.248   4.974  51.046  1.00  0.00     0.238 C 
HETATM   10  H10 UNL     1      24.095   3.784  54.413  1.00  0.00     0.159 HD
ENDROOT
BRANCH   5  11
HETATM   11  N3  UNL     1      21.458   2.569  51.218  1.00  0.00    -0.339 N 
HETATM   12  H11 UNL     1      20.920   3.107  50.516  1.00  0.00     0.167 HD
BRANCH  11  13
HETATM   13  C7  UNL     1      20.949   1.481  51.925  1.00  0.00     0.035 A 
HETATM   14  C8  UNL     1      19.727   0.904  51.639  1.00  0.00     0.032 A 
HETATM   15  C9  UNL     1      19.185  -0.172  52.312  1.00  0.00     0.046 A 
HETATM   16  C10 UNL     1      19.932  -0.700  53.346  1.00  0.00     0.138 A 
HETATM   17  F1  UNL     1      19.398  -1.761  54.009  1.00  0.00    -0.204 F 
HETATM   18  C11 UNL     1      21.170  -0.165  53.683  1.00  0.00     0.074 A 
HETATM   19 CL1  UNL     1      22.051  -0.891  55.003  1.00  0.00    -0.081 Cl
HETATM   20  C12 UNL     1      21.682   0.922  52.978  1.00  0.00     0.056 A 
ENDBRANCH  11  13
ENDBRANCH   5  11
BRANCH   1  21
HETATM   21  C2  UNL     1      25.798   0.633  52.068  1.00  0.00     0.036 C 
HETATM   22  C1  UNL     1      25.315   0.067  53.381  1.00  0.00     0.008 C 
ENDBRANCH   1  21
BRANCH   1  23
HETATM   23  N1  UNL     1      27.238   2.551  51.959  1.00  0.00    -0.414 N 
HETATM   24  H6  UNL     1      27.656   3.116  52.721  1.00  0.00     0.151 HD
HETATM   25  H7  UNL     1      27.461   2.830  50.998  1.00  0.00     0.151 HD
ENDBRANCH   1  23
TORSDOF 4
ENDMDL
MODEL 7
REMARK VINA RESULT:      -6.7      4.322      6.740
REMARK  4 active torsions:
REMARK  status: ('A' for Active; 'I' for Inactive)
REMARK    1  A    between atoms: C2_2  and  C3_3 
REMARK    2  A    between atoms: C3_3  and  N1_4 
REMARK    3  A    between atoms: C6_8  and  N3_9 
REMARK    4  A    between atoms: N3_9  and  C7_10 
ROOT
HETATM    1  C3  UNL     1      21.746   3.004  50.268  1.00  0.00     0.107 C 
HETATM    2  C4  UNL     1      22.977   2.791  49.401  1.00  0.00     0.159 C 
HETATM    3  N2  UNL     1      24.168   3.502  49.954  1.00  0.00    -0.386 N 
HETATM    4  C5  UNL     1      24.012   4.250  51.234  1.00  0.00     0.076 C 
HETATM    5  C6  UNL     1      24.175   3.596  52.423  1.00  0.00     0.155 C 
HETATM    6  N4  UNL     1      22.707   3.389  52.479  1.00  0.00    -0.206 NA
HETATM    7  C13 UNL     1      22.154   3.928  51.403  1.00  0.00     0.172 C 
HETATM    8  O1  UNL     1      22.137   5.376  51.700  1.00  0.00    -0.330 OA
HETATM    9  C14 UNL     1      23.580   5.751  51.363  1.00  0.00     0.238 C 
HETATM   10  H10 UNL     1      24.861   3.228  49.178  1.00  0.00     0.159 HD
ENDROOT
BRANCH   5  11
HETATM   11  N3  UNL     1      24.959   3.075  53.492  1.00  0.00    -0.339 N 
HETATM   12  H11 UNL     1      24.942   3.626  54.368  1.00  0.00     0.167 HD
BRANCH  11  13
HETATM   13  C7  UNL     1      25.689   1.899  53.323  1.00  0.00     0.035 A 
HETATM   14  C8  UNL     1      25.120   0.718  52.890  1.00  0.00     0.032 A 
HETATM   15  C9  UNL     1      25.803  -0.468  52.711  1.00  0.00     0.046 A 
HETATM   16  C10 UNL     1      27.155  -0.456  52.989  1.00  0.00     0.138 A 
HETATM   17  F1  UNL     1      27.828  -1.625  52.811  1.00  0.00    -0.204 F 
HETATM   18  C11 UNL     1      27.787   0.702  53.428  1.00  0.00     0.074 A 
HETATM   19 CL1  UNL     1      29.500   0.633  53.757  1.00  0.00    -0.081 Cl
HETATM   20  C12 UNL     1      27.061   1.879  53.596  1.00  0.00     0.056 A 
ENDBRANCH  11  13
ENDBRANCH   5  11
BRANCH   1  21
HETATM   21  C2  UNL     1      21.195   1.716  50.791  1.00  0.00     0.036 C 
HETATM   22  C1  UNL     1      21.385   0.641  49.749  1.00  0.00     0.008 C 
ENDBRANCH   1  21
BRANCH   1  23
HETATM   23  N1  UNL     1      20.730   3.707  49.533  1.00  0.00    -0.414 N 
HETATM   24  H6  UNL     1      20.751   4.739  49.623  1.00  0.00     0.151 HD
HETATM   25  H7  UNL     1      19.807   3.261  49.517  1.00  0.00     0.151 HD
ENDBRANCH   1  23
TORSDOF 4
ENDMDL
MODEL 8
REMARK VINA RESULT:      -6.6      4.353      6.768
REMARK  4 active torsions:
REMARK  status: ('A' for Active; 'I' for Inactive)
REMARK    1  A    between atoms: C2_2  and  C3_3 
REMARK    2  A    between atoms: C3_3  and  N1_4 
REMARK    3  A    between atoms: C6_8  and  N3_9 
REMARK    4  A    between atoms: N3_9  and  C7_10 
ROOT
HETATM    1  C3  UNL     1      21.740   3.357  51.111  1.00  0.00     0.107 C 
HETATM    2  C4  UNL     1      22.100   1.968  50.609  1.00  0.00     0.159 C 
HETATM    3  N2  UNL     1      23.579   1.759  50.584  1.00  0.00    -0.386 N 
HETATM    4  C5  UNL     1      24.456   2.864  51.068  1.00  0.00     0.076 C 
HETATM    5  C6  UNL     1      24.754   2.957  52.399  1.00  0.00     0.155 C 
HETATM    6  N4  UNL     1      23.629   3.913  52.555  1.00  0.00    -0.206 NA
HETATM    7  C13 UNL     1      23.045   4.088  51.378  1.00  0.00     0.172 C 
HETATM    8  O1  UNL     1      23.956   5.006  50.663  1.00  0.00    -0.330 OA
HETATM    9  C14 UNL     1      25.027   4.025  50.184  1.00  0.00     0.238 C 
HETATM   10  H10 UNL     1      23.568   0.761  50.183  1.00  0.00     0.159 HD
ENDROOT
BRANCH   5  11
HETATM   11  N3  UNL     1      25.507   2.625  53.561  1.00  0.00    -0.339 N 
HETATM   12  H11 UNL     1      25.208   3.093  54.434  1.00  0.00     0.167 HD
BRANCH  11  13
HETATM   13  C7  UNL     1      26.569   1.726  53.480  1.00  0.00     0.035 A 
HETATM   14  C8  UNL     1      27.879   2.087  53.727  1.00  0.00     0.032 A 
HETATM   15  C9  UNL     1      28.959   1.231  53.658  1.00  0.00     0.046 A 
HETATM   16  C10 UNL     1      28.696  -0.080  53.317  1.00  0.00     0.138 A 
HETATM   17  F1  UNL     1      29.761  -0.923  53.250  1.00  0.00    -0.204 F 
HETATM   18  C11 UNL     1      27.398  -0.506  53.057  1.00  0.00     0.074 A 
HETATM   19 CL1  UNL     1      27.148  -2.181  52.633  1.00  0.00    -0.081 Cl
HETATM   20  C12 UNL     1      26.333   0.390  53.138  1.00  0.00     0.056 A 
ENDBRANCH  11  13
ENDBRANCH   5  11
BRANCH   1  21
HETATM   21  C2  UNL     1      20.887   3.309  52.338  1.00  0.00     0.036 C 
HETATM   22  C1  UNL     1      19.435   3.304  51.927  1.00  0.00     0.008 C 
ENDBRANCH   1  21
BRANCH   1  23
HETATM   23  N1  UNL     1      21.073   4.106  50.082  1.00  0.00    -0.414 N 
HETATM   24  H6  UNL     1      21.058   5.133  50.219  1.00  0.00     0.151 HD
HETATM   25  H7  UNL     1      20.224   3.676  49.701  1.00  0.00     0.151 HD
ENDBRANCH   1  23
TORSDOF 4
ENDMDL
MODEL 9
REMARK VINA RESULT:      -6.4      4.332      7.259
REMARK  4 active torsions:
REMARK  status: ('A' for Active; 'I' for Inactive)
REMARK    1  A    between atoms: C2_2  and  C3_3 
REMARK    2  A    between atoms: C3_3  and  N1_4 
REMARK    3  A    between atoms: C6_8  and  N3_9 
REMARK    4  A    between atoms: N3_9  and  C7_10 
ROOT
HETATM    1  C3  UNL     1      22.510   5.358  49.602  1.00  0.00     0.107 C 
HETATM    2  C4  UNL     1      22.311   6.482  50.606  1.00  0.00     0.159 C 
HETATM    3  N2  UNL     1      22.186   5.960  51.999  1.00  0.00    -0.386 N 
HETATM    4  C5  UNL     1      22.309   4.489  52.216  1.00  0.00     0.076 C 
HETATM    5  C6  UNL     1      23.545   3.933  52.396  1.00  0.00     0.155 C 
HETATM    6  N4  UNL     1      23.587   3.625  50.944  1.00  0.00    -0.206 NA
HETATM    7  C13 UNL     1      22.467   4.053  50.380  1.00  0.00     0.172 C 
HETATM    8  O1  UNL     1      21.470   3.026  50.747  1.00  0.00    -0.330 OA
HETATM    9  C14 UNL     1      21.126   3.462  52.171  1.00  0.00     0.238 C 
HETATM   10  H10 UNL     1      22.031   6.906  52.486  1.00  0.00     0.159 HD
ENDROOT
BRANCH   5  11
HETATM   11  N3  UNL     1      24.670   3.562  53.185  1.00  0.00    -0.339 N 
HETATM   12  H11 UNL     1      25.109   4.328  53.725  1.00  0.00     0.167 HD
BRANCH  11  13
HETATM   13  C7  UNL     1      25.120   2.242  53.197  1.00  0.00     0.035 A 
HETATM   14  C8  UNL     1      24.267   1.158  53.132  1.00  0.00     0.032 A 
HETATM   15  C9  UNL     1      24.668  -0.163  53.142  1.00  0.00     0.046 A 
HETATM   16  C10 UNL     1      26.025  -0.402  53.221  1.00  0.00     0.138 A 
HETATM   17  F1  UNL     1      26.419  -1.703  53.230  1.00  0.00    -0.204 F 
HETATM   18  C11 UNL     1      26.935   0.647  53.288  1.00  0.00     0.074 A 
HETATM   19 CL1  UNL     1      28.634   0.261  53.386  1.00  0.00    -0.081 Cl
HETATM   20  C12 UNL     1      26.489   1.968  53.275  1.00  0.00     0.056 A 
ENDBRANCH  11  13
ENDBRANCH   5  11
BRANCH   1  21
HETATM   21  C2  UNL     1      23.794   5.496  48.849  1.00  0.00     0.036 C 
HETATM   22  C1  UNL     1      23.673   6.644  47.878  1.00  0.00     0.008 C 
ENDBRANCH   1  21
BRANCH   1  23
HETATM   23  N1  UNL     1      21.408   5.305  48.682  1.00  0.00    -0.414 N 
HETATM   24  H6  UNL     1      20.990   6.221  48.436  1.00  0.00     0.151 HD
HETATM   25  H7  UNL     1      20.761   4.520  48.811  1.00  0.00     0.151 HD
ENDBRANCH   1  23
TORSDOF 4
ENDMDL
