MODEL 1
REMARK VINA RESULT:      -8.4      0.000      0.000
REMARK  2 active torsions:
REMARK  status: ('A' for Active; 'I' for Inactive)
REMARK    1  A    between atoms: C4_5  and  N2_6 
REMARK    2  A    between atoms: N2_6  and  C5_7 
ROOT
HETATM    1  C5  UNL     1      25.522   1.288  52.383  1.00  0.00     0.049 A 
HETATM    2  C6  UNL     1      26.038   2.184  51.453  1.00  0.00     0.050 A 
HETATM    3  C7  UNL     1      25.221   2.903  50.591  1.00  0.00     0.122 A 
HETATM    4  N3  UNL     1      23.905   2.692  50.698  1.00  0.00    -0.236 NA
HETATM    5  C8  UNL     1      23.324   1.854  51.557  1.00  0.00     0.183 A 
HETATM    6  O1  UNL     1      22.093   1.496  51.827  1.00  0.00    -0.290 OA
HETATM    7  C9  UNL     1      22.075   0.606  52.791  1.00  0.00     0.089 A 
HETATM    8  C10 UNL     1      21.061  -0.064  53.419  1.00  0.00     0.038 A 
HETATM    9  C11 UNL     1      21.329  -0.970  54.423  1.00  0.00     0.003 A 
HETATM   10  C12 UNL     1      22.656  -1.209  54.807  1.00  0.00     0.001 A 
HETATM   11  C13 UNL     1      23.668  -0.530  54.170  1.00  0.00     0.015 A 
HETATM   12  C14 UNL     1      23.371   0.365  53.178  1.00  0.00     0.015 A 
HETATM   13  C15 UNL     1      24.161   1.159  52.393  1.00  0.00     0.057 A 
ENDROOT
BRANCH   1  14
HETATM   14  N2  UNL     1      26.517   0.686  53.147  1.00  0.00    -0.354 N 
HETATM   15  H4  UNL     1      26.753   1.279  54.001  1.00  0.00     0.166 HD
BRANCH  14  16
HETATM   16  C4  UNL     1      27.331  -0.506  53.119  1.00  0.00     0.050 A 
HETATM   17  C3  UNL     1      26.905  -1.747  52.709  1.00  0.00     0.145 A 
HETATM   18  N1  UNL     1      27.830  -2.718  52.758  1.00  0.00    -0.271 NA
HETATM   19  C2  UNL     1      29.087  -2.499  53.175  1.00  0.00     0.116 A 
HETATM   20  C1  UNL     1      29.556  -1.273  53.593  1.00  0.00     0.021 A 
HETATM   21  C16 UNL     1      28.636  -0.247  53.559  1.00  0.00     0.032 A 
ENDBRANCH  14  16
ENDBRANCH   1  14
TORSDOF 2
ENDMDL
MODEL 2
REMARK VINA RESULT:      -8.4      2.083      4.781
REMARK  2 active torsions:
REMARK  status: ('A' for Active; 'I' for Inactive)
REMARK    1  A    between atoms: C4_5  and  N2_6 
REMARK    2  A    between atoms: N2_6  and  C5_7 
ROOT
HETATM    1  C5  UNL     1      26.292   0.781  52.773  1.00  0.00     0.049 A 
HETATM    2  C6  UNL     1      27.658   0.962  52.960  1.00  0.00     0.050 A 
HETATM    3  C7  UNL     1      28.322   0.462  54.072  1.00  0.00     0.122 A 
HETATM    4  N3  UNL     1      27.580  -0.207  54.961  1.00  0.00    -0.236 NA
HETATM    5  C8  UNL     1      26.269  -0.428  54.864  1.00  0.00     0.183 A 
HETATM    6  O1  UNL     1      25.366  -1.035  55.593  1.00  0.00    -0.290 OA
HETATM    7  C9  UNL     1      24.186  -0.953  55.024  1.00  0.00     0.089 A 
HETATM    8  C10 UNL     1      22.947  -1.414  55.381  1.00  0.00     0.038 A 
HETATM    9  C11 UNL     1      21.850  -1.178  54.581  1.00  0.00     0.003 A 
HETATM   10  C12 UNL     1      22.001  -0.457  53.389  1.00  0.00     0.001 A 
HETATM   11  C13 UNL     1      23.250   0.001  53.039  1.00  0.00     0.015 A 
HETATM   12  C14 UNL     1      24.322  -0.250  53.852  1.00  0.00     0.015 A 
HETATM   13  C15 UNL     1      25.645   0.080  53.752  1.00  0.00     0.057 A 
ENDROOT
BRANCH   1  14
HETATM   14  N2  UNL     1      25.840   1.356  51.589  1.00  0.00    -0.354 N 
HETATM   15  H4  UNL     1      25.662   0.612  50.847  1.00  0.00     0.166 HD
BRANCH  14  16
HETATM   16  C4  UNL     1      25.544   2.670  51.068  1.00  0.00     0.050 A 
HETATM   17  C3  UNL     1      24.497   3.465  51.471  1.00  0.00     0.145 A 
HETATM   18  N1  UNL     1      24.411   4.656  50.859  1.00  0.00    -0.271 NA
HETATM   19  C2  UNL     1      25.283   5.050  49.917  1.00  0.00     0.116 A 
HETATM   20  C1  UNL     1      26.344   4.286  49.484  1.00  0.00     0.021 A 
HETATM   21  C16 UNL     1      26.469   3.054  50.089  1.00  0.00     0.032 A 
ENDBRANCH  14  16
ENDBRANCH   1  14
TORSDOF 2
ENDMDL
MODEL 3
REMARK VINA RESULT:      -8.1      2.002      4.989
REMARK  2 active torsions:
REMARK  status: ('A' for Active; 'I' for Inactive)
REMARK    1  A    between atoms: C4_5  and  N2_6 
REMARK    2  A    between atoms: N2_6  and  C5_7 
ROOT
HETATM    1  C5  UNL     1      25.700   0.974  52.631  1.00  0.00     0.049 A 
HETATM    2  C6  UNL     1      27.081   1.118  52.713  1.00  0.00     0.050 A 
HETATM    3  C7  UNL     1      27.833   0.468  53.682  1.00  0.00     0.122 A 
HETATM    4  N3  UNL     1      27.163  -0.308  54.540  1.00  0.00    -0.236 NA
HETATM    5  C8  UNL     1      25.843  -0.503  54.537  1.00  0.00     0.183 A 
HETATM    6  O1  UNL     1      24.998  -1.196  55.260  1.00  0.00    -0.290 OA
HETATM    7  C9  UNL     1      23.774  -1.028  54.820  1.00  0.00     0.089 A 
HETATM    8  C10 UNL     1      22.564  -1.522  55.227  1.00  0.00     0.038 A 
HETATM    9  C11 UNL     1      21.402  -1.172  54.572  1.00  0.00     0.003 A 
HETATM   10  C12 UNL     1      21.459  -0.299  53.477  1.00  0.00     0.001 A 
HETATM   11  C13 UNL     1      22.680   0.192  53.076  1.00  0.00     0.015 A 
HETATM   12  C14 UNL     1      23.816  -0.175  53.744  1.00  0.00     0.015 A 
HETATM   13  C15 UNL     1      25.131   0.154  53.566  1.00  0.00     0.057 A 
ENDROOT
BRANCH   1  14
HETATM   14  N2  UNL     1      25.153   1.706  51.582  1.00  0.00    -0.354 N 
HETATM   15  H4  UNL     1      25.348   1.235  50.646  1.00  0.00     0.166 HD
BRANCH  14  16
HETATM   16  C4  UNL     1      24.401   2.924  51.389  1.00  0.00     0.050 A 
HETATM   17  C3  UNL     1      24.026   3.439  50.171  1.00  0.00     0.145 A 
HETATM   18  N1  UNL     1      23.325   4.581  50.221  1.00  0.00    -0.271 NA
HETATM   19  C2  UNL     1      23.006   5.185  51.377  1.00  0.00     0.116 A 
HETATM   20  C1  UNL     1      23.361   4.704  52.618  1.00  0.00     0.021 A 
HETATM   21  C16 UNL     1      24.084   3.531  52.611  1.00  0.00     0.032 A 
ENDBRANCH  14  16
ENDBRANCH   1  14
TORSDOF 2
ENDMDL
MODEL 4
REMARK VINA RESULT:      -8.1      1.749      3.799
REMARK  2 active torsions:
REMARK  status: ('A' for Active; 'I' for Inactive)
REMARK    1  A    between atoms: C4_5  and  N2_6 
REMARK    2  A    between atoms: N2_6  and  C5_7 
ROOT
HETATM    1  C5  UNL     1      23.551  -0.265  53.508  1.00  0.00     0.049 A 
HETATM    2  C6  UNL     1      22.882  -1.040  54.450  1.00  0.00     0.050 A 
HETATM    3  C7  UNL     1      21.570  -0.778  54.821  1.00  0.00     0.122 A 
HETATM    4  N3  UNL     1      20.976   0.262  54.226  1.00  0.00    -0.236 NA
HETATM    5  C8  UNL     1      21.540   1.057  53.316  1.00  0.00     0.183 A 
HETATM    6  O1  UNL     1      21.160   2.103  52.624  1.00  0.00    -0.290 OA
HETATM    7  C9  UNL     1      22.134   2.518  51.849  1.00  0.00     0.089 A 
HETATM    8  C10 UNL     1      22.236   3.550  50.956  1.00  0.00     0.038 A 
HETATM    9  C11 UNL     1      23.406   3.769  50.260  1.00  0.00     0.003 A 
HETATM   10  C12 UNL     1      24.506   2.924  50.469  1.00  0.00     0.001 A 
HETATM   11  C13 UNL     1      24.393   1.890  51.368  1.00  0.00     0.015 A 
HETATM   12  C14 UNL     1      23.218   1.696  52.043  1.00  0.00     0.015 A 
HETATM   13  C15 UNL     1      22.836   0.770  52.973  1.00  0.00     0.057 A 
ENDROOT
BRANCH   1  14
HETATM   14  N2  UNL     1      24.850  -0.712  53.283  1.00  0.00    -0.354 N 
HETATM   15  H4  UNL     1      24.862  -1.507  52.574  1.00  0.00     0.166 HD
BRANCH  14  16
HETATM   16  C4  UNL     1      26.189  -0.416  53.735  1.00  0.00     0.050 A 
HETATM   17  C3  UNL     1      26.507   0.416  54.782  1.00  0.00     0.145 A 
HETATM   18  N1  UNL     1      27.818   0.545  55.036  1.00  0.00    -0.271 NA
HETATM   19  C2  UNL     1      28.760  -0.092  54.322  1.00  0.00     0.116 A 
HETATM   20  C1  UNL     1      28.486  -0.934  53.268  1.00  0.00     0.021 A 
HETATM   21  C16 UNL     1      27.149  -1.094  52.973  1.00  0.00     0.032 A 
ENDBRANCH  14  16
ENDBRANCH   1  14
TORSDOF 2
ENDMDL
MODEL 5
REMARK VINA RESULT:      -8.0      2.294      5.990
REMARK  2 active torsions:
REMARK  status: ('A' for Active; 'I' for Inactive)
REMARK    1  A    between atoms: C4_5  and  N2_6 
REMARK    2  A    between atoms: N2_6  and  C5_7 
ROOT
HETATM    1  C5  UNL     1      24.416   1.912  52.997  1.00  0.00     0.049 A 
HETATM    2  C6  UNL     1      23.118   1.422  52.898  1.00  0.00     0.050 A 
HETATM    3  C7  UNL     1      22.791   0.123  53.263  1.00  0.00     0.122 A 
HETATM    4  N3  UNL     1      23.790  -0.641  53.718  1.00  0.00    -0.236 NA
HETATM    5  C8  UNL     1      25.061  -0.256  53.845  1.00  0.00     0.183 A 
HETATM    6  O1  UNL     1      26.172  -0.818  54.252  1.00  0.00    -0.290 OA
HETATM    7  C9  UNL     1      27.171   0.029  54.168  1.00  0.00     0.089 A 
HETATM    8  C10 UNL     1      28.504  -0.073  54.464  1.00  0.00     0.038 A 
HETATM    9  C11 UNL     1      29.353   0.996  54.273  1.00  0.00     0.003 A 
HETATM   10  C12 UNL     1      28.848   2.203  53.770  1.00  0.00     0.001 A 
HETATM   11  C13 UNL     1      27.507   2.295  53.476  1.00  0.00     0.015 A 
HETATM   12  C14 UNL     1      26.688   1.218  53.678  1.00  0.00     0.015 A 
HETATM   13  C15 UNL     1      25.348   1.034  53.475  1.00  0.00     0.057 A 
ENDROOT
BRANCH   1  14
HETATM   14  N2  UNL     1      24.513   3.238  52.587  1.00  0.00    -0.354 N 
HETATM   15  H4  UNL     1      24.562   3.894  53.426  1.00  0.00     0.166 HD
BRANCH  14  16
HETATM   16  C4  UNL     1      24.562   3.988  51.354  1.00  0.00     0.050 A 
HETATM   17  C3  UNL     1      23.664   4.961  50.982  1.00  0.00     0.145 A 
HETATM   18  N1  UNL     1      23.901   5.538  49.794  1.00  0.00    -0.271 NA
HETATM   19  C2  UNL     1      24.941   5.195  49.018  1.00  0.00     0.116 A 
HETATM   20  C1  UNL     1      25.864   4.228  49.351  1.00  0.00     0.021 A 
HETATM   21  C16 UNL     1      25.656   3.610  50.566  1.00  0.00     0.032 A 
ENDBRANCH  14  16
ENDBRANCH   1  14
TORSDOF 2
ENDMDL
MODEL 6
REMARK VINA RESULT:      -8.0      1.705      4.312
REMARK  2 active torsions:
REMARK  status: ('A' for Active; 'I' for Inactive)
REMARK    1  A    between atoms: C4_5  and  N2_6 
REMARK    2  A    between atoms: N2_6  and  C5_7 
ROOT
HETATM    1  C5  UNL     1      24.891   1.183  52.021  1.00  0.00     0.049 A 
HETATM    2  C6  UNL     1      23.947   0.589  52.851  1.00  0.00     0.050 A 
HETATM    3  C7  UNL     1      22.721   1.183  53.116  1.00  0.00     0.122 A 
HETATM    4  N3  UNL     1      22.488   2.363  52.532  1.00  0.00    -0.236 NA
HETATM    5  C8  UNL     1      23.334   3.005  51.724  1.00  0.00     0.183 A 
HETATM    6  O1  UNL     1      23.319   4.136  51.063  1.00  0.00    -0.290 OA
HETATM    7  C9  UNL     1      24.442   4.297  50.405  1.00  0.00     0.089 A 
HETATM    8  C10 UNL     1      24.907   5.291  49.587  1.00  0.00     0.038 A 
HETATM    9  C11 UNL     1      26.157   5.207  49.014  1.00  0.00     0.003 A 
HETATM   10  C12 UNL     1      26.966   4.092  49.272  1.00  0.00     0.001 A 
HETATM   11  C13 UNL     1      26.490   3.098  50.095  1.00  0.00     0.015 A 
HETATM   12  C14 UNL     1      25.243   3.207  50.648  1.00  0.00     0.015 A 
HETATM   13  C15 UNL     1      24.536   2.389  51.484  1.00  0.00     0.057 A 
ENDROOT
BRANCH   1  14
HETATM   14  N2  UNL     1      26.041   0.410  51.889  1.00  0.00    -0.354 N 
HETATM   15  H4  UNL     1      26.072  -0.068  50.937  1.00  0.00     0.166 HD
BRANCH  14  16
HETATM   16  C4  UNL     1      27.205   0.061  52.669  1.00  0.00     0.050 A 
HETATM   17  C3  UNL     1      27.605  -1.221  52.965  1.00  0.00     0.145 A 
HETATM   18  N1  UNL     1      28.723  -1.318  53.700  1.00  0.00    -0.271 NA
HETATM   19  C2  UNL     1      29.410  -0.244  54.120  1.00  0.00     0.116 A 
HETATM   20  C1  UNL     1      29.045   1.056  53.846  1.00  0.00     0.021 A 
HETATM   21  C16 UNL     1      27.900   1.201  53.092  1.00  0.00     0.032 A 
ENDBRANCH  14  16
ENDBRANCH   1  14
TORSDOF 2
ENDMDL
MODEL 7
REMARK VINA RESULT:      -8.0      2.453      5.957
REMARK  2 active torsions:
REMARK  status: ('A' for Active; 'I' for Inactive)
REMARK    1  A    between atoms: C4_5  and  N2_6 
REMARK    2  A    between atoms: N2_6  and  C5_7 
ROOT
HETATM    1  C5  UNL     1      22.499   0.567  53.093  1.00  0.00     0.049 A 
HETATM    2  C6  UNL     1      21.337   0.121  53.713  1.00  0.00     0.050 A 
HETATM    3  C7  UNL     1      21.363  -0.801  54.750  1.00  0.00     0.122 A 
HETATM    4  N3  UNL     1      22.567  -1.245  55.126  1.00  0.00    -0.236 NA
HETATM    5  C8  UNL     1      23.730  -0.875  54.589  1.00  0.00     0.183 A 
HETATM    6  O1  UNL     1      24.990  -1.173  54.790  1.00  0.00    -0.290 OA
HETATM    7  C9  UNL     1      25.756  -0.509  53.957  1.00  0.00     0.089 A 
HETATM    8  C10 UNL     1      27.111  -0.472  53.768  1.00  0.00     0.038 A 
HETATM    9  C11 UNL     1      27.666   0.331  52.795  1.00  0.00     0.003 A 
HETATM   10  C12 UNL     1      26.835   1.121  51.989  1.00  0.00     0.001 A 
HETATM   11  C13 UNL     1      25.474   1.078  52.187  1.00  0.00     0.015 A 
HETATM   12  C14 UNL     1      24.952   0.272  53.162  1.00  0.00     0.015 A 
HETATM   13  C15 UNL     1      23.667   0.037  53.567  1.00  0.00     0.057 A 
ENDROOT
BRANCH   1  14
HETATM   14  N2  UNL     1      22.240   1.494  52.088  1.00  0.00    -0.354 N 
HETATM   15  H4  UNL     1      22.041   2.457  52.500  1.00  0.00     0.166 HD
BRANCH  14  16
HETATM   16  C4  UNL     1      22.156   1.534  50.647  1.00  0.00     0.050 A 
HETATM   17  C3  UNL     1      21.383   0.700  49.875  1.00  0.00     0.145 A 
HETATM   18  N1  UNL     1      21.450   0.915  48.552  1.00  0.00    -0.271 NA
HETATM   19  C2  UNL     1      22.216   1.877  48.013  1.00  0.00     0.116 A 
HETATM   20  C1  UNL     1      23.004   2.734  48.748  1.00  0.00     0.021 A 
HETATM   21  C16 UNL     1      22.965   2.546  50.114  1.00  0.00     0.032 A 
ENDBRANCH  14  16
ENDBRANCH   1  14
TORSDOF 2
ENDMDL
MODEL 8
REMARK VINA RESULT:      -7.9      1.653      2.165
REMARK  2 active torsions:
REMARK  status: ('A' for Active; 'I' for Inactive)
REMARK    1  A    between atoms: C4_5  and  N2_6 
REMARK    2  A    between atoms: N2_6  and  C5_7 
ROOT
HETATM    1  C5  UNL     1      24.223   1.916  51.416  1.00  0.00     0.049 A 
HETATM    2  C6  UNL     1      24.303   3.004  50.555  1.00  0.00     0.050 A 
HETATM    3  C7  UNL     1      23.239   3.876  50.368  1.00  0.00     0.122 A 
HETATM    4  N3  UNL     1      22.125   3.618  51.060  1.00  0.00    -0.236 NA
HETATM    5  C8  UNL     1      21.959   2.600  51.905  1.00  0.00     0.183 A 
HETATM    6  O1  UNL     1      20.984   2.165  52.666  1.00  0.00    -0.290 OA
HETATM    7  C9  UNL     1      21.355   1.086  53.314  1.00  0.00     0.089 A 
HETATM    8  C10 UNL     1      20.715   0.272  54.209  1.00  0.00     0.038 A 
HETATM    9  C11 UNL     1      21.353  -0.825  54.748  1.00  0.00     0.003 A 
HETATM   10  C12 UNL     1      22.674  -1.113  54.375  1.00  0.00     0.001 A 
HETATM   11  C13 UNL     1      23.309  -0.289  53.475  1.00  0.00     0.015 A 
HETATM   12  C14 UNL     1      22.650   0.795  52.959  1.00  0.00     0.015 A 
HETATM   13  C15 UNL     1      23.030   1.758  52.066  1.00  0.00     0.057 A 
ENDROOT
BRANCH   1  14
HETATM   14  N2  UNL     1      25.406   1.184  51.456  1.00  0.00    -0.354 N 
HETATM   15  H4  UNL     1      25.384   0.386  50.750  1.00  0.00     0.166 HD
BRANCH  14  16
HETATM   16  C4  UNL     1      26.655   1.186  52.179  1.00  0.00     0.050 A 
HETATM   17  C3  UNL     1      27.420   2.299  52.438  1.00  0.00     0.145 A 
HETATM   18  N1  UNL     1      28.545   2.075  53.134  1.00  0.00    -0.271 NA
HETATM   19  C2  UNL     1      28.906   0.851  53.553  1.00  0.00     0.116 A 
HETATM   20  C1  UNL     1      28.170  -0.289  53.316  1.00  0.00     0.021 A 
HETATM   21  C16 UNL     1      27.005  -0.102  52.603  1.00  0.00     0.032 A 
ENDBRANCH  14  16
ENDBRANCH   1  14
TORSDOF 2
ENDMDL
MODEL 9
REMARK VINA RESULT:      -7.6      2.108      5.275
REMARK  2 active torsions:
REMARK  status: ('A' for Active; 'I' for Inactive)
REMARK    1  A    between atoms: C4_5  and  N2_6 
REMARK    2  A    between atoms: N2_6  and  C5_7 
ROOT
HETATM    1  C5  UNL     1      24.604   1.812  51.810  1.00  0.00     0.049 A 
HETATM    2  C6  UNL     1      25.924   2.033  51.432  1.00  0.00     0.050 A 
HETATM    3  C7  UNL     1      26.973   1.288  51.953  1.00  0.00     0.122 A 
HETATM    4  N3  UNL     1      26.653   0.343  52.843  1.00  0.00    -0.236 NA
HETATM    5  C8  UNL     1      25.418   0.064  53.263  1.00  0.00     0.183 A 
HETATM    6  O1  UNL     1      24.886  -0.790  54.103  1.00  0.00    -0.290 OA
HETATM    7  C9  UNL     1      23.584  -0.636  54.150  1.00  0.00     0.089 A 
HETATM    8  C10 UNL     1      22.598  -1.268  54.858  1.00  0.00     0.038 A 
HETATM    9  C11 UNL     1      21.278  -0.897  54.716  1.00  0.00     0.003 A 
HETATM   10  C12 UNL     1      20.940   0.141  53.837  1.00  0.00     0.001 A 
HETATM   11  C13 UNL     1      21.938   0.770  53.129  1.00  0.00     0.015 A 
HETATM   12  C14 UNL     1      23.240   0.378  53.289  1.00  0.00     0.015 A 
HETATM   13  C15 UNL     1      24.405   0.818  52.727  1.00  0.00     0.057 A 
ENDROOT
BRANCH   1  14
HETATM   14  N2  UNL     1      23.718   2.664  51.158  1.00  0.00    -0.354 N 
HETATM   15  H4  UNL     1      23.428   3.471  51.791  1.00  0.00     0.166 HD
BRANCH  14  16
HETATM   16  C4  UNL     1      23.071   2.774  49.872  1.00  0.00     0.050 A 
HETATM   17  C3  UNL     1      23.214   3.825  48.998  1.00  0.00     0.145 A 
HETATM   18  N1  UNL     1      22.525   3.720  47.852  1.00  0.00    -0.271 NA
HETATM   19  C2  UNL     1      21.746   2.663  47.570  1.00  0.00     0.116 A 
HETATM   20  C1  UNL     1      21.574   1.589  48.415  1.00  0.00     0.021 A 
HETATM   21  C16 UNL     1      22.266   1.658  49.605  1.00  0.00     0.032 A 
ENDBRANCH  14  16
ENDBRANCH   1  14
TORSDOF 2
ENDMDL
