MODEL 1
REMARK VINA RESULT:      -7.5      0.000      0.000
REMARK  1 active torsions:
REMARK  status: ('A' for Active; 'I' for Inactive)
REMARK    1  A    between atoms: C9_12  and  O1_13 
ROOT
HETATM    1  C1  UNL     1      23.396   4.506  52.322  1.00  0.00     0.033 C 
HETATM    2  C2  UNL     1      23.270   4.270  50.826  1.00  0.00     0.085 C 
HETATM    3  C3  UNL     1      24.590   3.929  50.272  1.00  0.00     0.047 C 
HETATM    4  C4  UNL     1      25.076   2.913  50.987  1.00  0.00     0.131 A 
HETATM    5 CL1  UNL     1      26.526   2.986  49.916  1.00  0.00    -0.137 Cl
HETATM    6  C5  UNL     1      25.961   1.905  51.567  1.00  0.00     0.284 A 
HETATM    7  F1  UNL     1      27.179   1.334  51.727  1.00  0.00    -0.198 F 
HETATM    8  N1  UNL     1      25.426   1.199  52.299  1.00  0.00    -0.247 NA
HETATM    9  C6  UNL     1      25.477   0.122  53.168  1.00  0.00     0.098 C 
HETATM   10  C7  UNL     1      24.486  -0.521  53.874  1.00  0.00     0.065 C 
HETATM   11  C8  UNL     1      23.130  -0.911  54.455  1.00  0.00     0.040 C 
HETATM   12  C9  UNL     1      21.909  -0.345  54.307  1.00  0.00     0.139 C 
HETATM   13  N2  UNL     1      22.069   0.850  53.431  1.00  0.00    -0.304 N 
HETATM   14  C10 UNL     1      21.590   0.243  52.247  1.00  0.00     0.248 C 
HETATM   15  O2  UNL     1      21.358  -0.919  52.770  1.00  0.00    -0.268 OA
HETATM   16  C11 UNL     1      21.475   0.833  50.980  1.00  0.00     0.091 C 
HETATM   17  C12 UNL     1      21.837   2.073  50.837  1.00  0.00     0.091 C 
HETATM   18  N3  UNL     1      22.167   3.373  50.488  1.00  0.00    -0.389 N 
HETATM   19  C13 UNL     1      21.115   3.823  49.599  1.00  0.00     0.149 C 
HETATM   20  H10 UNL     1      22.412   1.219  54.370  1.00  0.00     0.171 HD
ENDROOT
BRANCH  12  21
HETATM   21  O1  UNL     1      21.124  -1.156  55.059  1.00  0.00    -0.346 OA
HETATM   22  H9  UNL     1      20.300  -0.759  55.502  1.00  0.00     0.219 HD
ENDBRANCH  12  21
TORSDOF 1
ENDMDL
MODEL 2
REMARK VINA RESULT:      -7.2      3.306      4.973
REMARK  1 active torsions:
REMARK  status: ('A' for Active; 'I' for Inactive)
REMARK    1  A    between atoms: C9_12  and  O1_13 
ROOT
HETATM    1  C1  UNL     1      21.213   0.294  50.742  1.00  0.00     0.033 C 
HETATM    2  C2  UNL     1      20.581   0.991  51.934  1.00  0.00     0.085 C 
HETATM    3  C3  UNL     1      20.991   0.310  53.172  1.00  0.00     0.047 C 
HETATM    4  C4  UNL     1      22.323   0.240  53.172  1.00  0.00     0.131 A 
HETATM    5 CL1  UNL     1      22.177  -0.600  54.763  1.00  0.00    -0.137 Cl
HETATM    6  C5  UNL     1      23.707  -0.105  53.487  1.00  0.00     0.284 A 
HETATM    7  F1  UNL     1      24.637  -0.811  54.175  1.00  0.00    -0.198 F 
HETATM    8  N1  UNL     1      24.473   0.459  52.841  1.00  0.00    -0.247 NA
HETATM    9  C6  UNL     1      25.793   0.715  52.508  1.00  0.00     0.098 C 
HETATM   10  C7  UNL     1      26.347   1.612  51.624  1.00  0.00     0.065 C 
HETATM   11  C8  UNL     1      26.518   2.702  50.570  1.00  0.00     0.040 C 
HETATM   12  C9  UNL     1      25.598   3.408  49.871  1.00  0.00     0.139 C 
HETATM   13  N2  UNL     1      24.250   2.926  50.284  1.00  0.00    -0.304 N 
HETATM   14  C10 UNL     1      23.959   3.999  51.157  1.00  0.00     0.248 C 
HETATM   15  O2  UNL     1      25.074   4.632  50.977  1.00  0.00    -0.268 OA
HETATM   16  C11 UNL     1      22.796   4.178  51.922  1.00  0.00     0.091 C 
HETATM   17  C12 UNL     1      21.860   3.280  51.845  1.00  0.00     0.091 C 
HETATM   18  N3  UNL     1      20.757   2.441  51.898  1.00  0.00    -0.389 N 
HETATM   19  C13 UNL     1      19.599   3.311  51.912  1.00  0.00     0.149 C 
HETATM   20  H10 UNL     1      24.558   2.163  49.606  1.00  0.00     0.171 HD
ENDROOT
BRANCH  12  21
HETATM   21  O1  UNL     1      26.376   4.218  49.111  1.00  0.00    -0.346 OA
HETATM   22  H9  UNL     1      27.350   3.964  48.971  1.00  0.00     0.219 HD
ENDBRANCH  12  21
TORSDOF 1
ENDMDL
MODEL 3
REMARK VINA RESULT:      -7.2      1.480      1.823
REMARK  1 active torsions:
REMARK  status: ('A' for Active; 'I' for Inactive)
REMARK    1  A    between atoms: C9_12  and  O1_13 
ROOT
HETATM    1  C1  UNL     1      23.828   3.824  52.653  1.00  0.00     0.033 C 
HETATM    2  C2  UNL     1      24.263   3.463  51.243  1.00  0.00     0.085 C 
HETATM    3  C3  UNL     1      25.494   2.659  51.304  1.00  0.00     0.047 C 
HETATM    4  C4  UNL     1      25.266   1.634  52.127  1.00  0.00     0.131 A 
HETATM    5 CL1  UNL     1      26.961   1.117  51.789  1.00  0.00    -0.137 Cl
HETATM    6  C5  UNL     1      25.434   0.476  53.002  1.00  0.00     0.284 A 
HETATM    7  F1  UNL     1      26.204  -0.427  53.655  1.00  0.00    -0.198 F 
HETATM    8  N1  UNL     1      24.440   0.068  53.410  1.00  0.00    -0.247 NA
HETATM    9  C6  UNL     1      23.759  -0.857  54.184  1.00  0.00     0.098 C 
HETATM   10  C7  UNL     1      22.412  -1.065  54.373  1.00  0.00     0.065 C 
HETATM   11  C8  UNL     1      20.894  -0.935  54.300  1.00  0.00     0.040 C 
HETATM   12  C9  UNL     1      20.114  -0.033  53.657  1.00  0.00     0.139 C 
HETATM   13  N2  UNL     1      21.015   0.935  52.972  1.00  0.00    -0.304 N 
HETATM   14  C10 UNL     1      20.898   0.373  51.680  1.00  0.00     0.248 C 
HETATM   15  O2  UNL     1      20.094  -0.584  52.016  1.00  0.00    -0.268 OA
HETATM   16  C11 UNL     1      21.526   0.813  50.505  1.00  0.00     0.091 C 
HETATM   17  C12 UNL     1      22.308   1.849  50.570  1.00  0.00     0.091 C 
HETATM   18  N3  UNL     1      23.170   2.926  50.436  1.00  0.00    -0.389 N 
HETATM   19  C13 UNL     1      22.802   3.575  49.194  1.00  0.00     0.149 C 
HETATM   20  H10 UNL     1      21.039   1.287  53.978  1.00  0.00     0.171 HD
ENDROOT
BRANCH  12  21
HETATM   21  O1  UNL     1      18.865  -0.459  53.972  1.00  0.00    -0.346 OA
HETATM   22  H9  UNL     1      18.226   0.197  54.413  1.00  0.00     0.219 HD
ENDBRANCH  12  21
TORSDOF 1
ENDMDL
MODEL 4
REMARK VINA RESULT:      -7.0      3.357      4.757
REMARK  1 active torsions:
REMARK  status: ('A' for Active; 'I' for Inactive)
REMARK    1  A    between atoms: C9_12  and  O1_13 
ROOT
HETATM    1  C1  UNL     1      21.297   0.735  49.868  1.00  0.00     0.033 C 
HETATM    2  C2  UNL     1      20.402   1.565  50.774  1.00  0.00     0.085 C 
HETATM    3  C3  UNL     1      19.853   0.707  51.836  1.00  0.00     0.047 C 
HETATM    4  C4  UNL     1      20.878   0.092  52.428  1.00  0.00     0.131 A 
HETATM    5 CL1  UNL     1      19.656  -0.699  53.494  1.00  0.00    -0.137 Cl
HETATM    6  C5  UNL     1      21.689  -0.812  53.240  1.00  0.00     0.284 A 
HETATM    7  F1  UNL     1      21.829  -1.876  54.066  1.00  0.00    -0.198 F 
HETATM    8  N1  UNL     1      22.815  -0.581  53.188  1.00  0.00    -0.247 NA
HETATM    9  C6  UNL     1      24.111  -0.876  53.577  1.00  0.00     0.098 C 
HETATM   10  C7  UNL     1      25.303  -0.242  53.314  1.00  0.00     0.065 C 
HETATM   11  C8  UNL     1      26.346   0.736  52.780  1.00  0.00     0.040 C 
HETATM   12  C9  UNL     1      26.219   1.797  51.949  1.00  0.00     0.139 C 
HETATM   13  N2  UNL     1      24.785   1.895  51.557  1.00  0.00    -0.304 N 
HETATM   14  C10 UNL     1      24.449   2.942  52.445  1.00  0.00     0.248 C 
HETATM   15  O2  UNL     1      25.626   3.065  52.968  1.00  0.00    -0.268 OA
HETATM   16  C11 UNL     1      23.192   3.543  52.609  1.00  0.00     0.091 C 
HETATM   17  C12 UNL     1      22.202   3.120  51.880  1.00  0.00     0.091 C 
HETATM   18  N3  UNL     1      21.033   2.811  51.201  1.00  0.00    -0.389 N 
HETATM   19  C13 UNL     1      20.399   4.080  50.909  1.00  0.00     0.149 C 
HETATM   20  H10 UNL     1      25.133   1.112  50.923  1.00  0.00     0.171 HD
ENDROOT
BRANCH  12  21
HETATM   21  O1  UNL     1      27.494   2.253  51.870  1.00  0.00    -0.346 OA
HETATM   22  H9  UNL     1      28.111   2.107  52.665  1.00  0.00     0.219 HD
ENDBRANCH  12  21
TORSDOF 1
ENDMDL
MODEL 5
REMARK VINA RESULT:      -6.9      4.269      6.753
REMARK  1 active torsions:
REMARK  status: ('A' for Active; 'I' for Inactive)
REMARK    1  A    between atoms: C9_12  and  O1_13 
ROOT
HETATM    1  C1  UNL     1      24.049   3.197  53.002  1.00  0.00     0.033 C 
HETATM    2  C2  UNL     1      24.435   1.837  52.445  1.00  0.00     0.085 C 
HETATM    3  C3  UNL     1      23.303   1.282  51.686  1.00  0.00     0.047 C 
HETATM    4  C4  UNL     1      22.931   2.198  50.791  1.00  0.00     0.131 A 
HETATM    5 CL1  UNL     1      21.665   1.023  50.267  1.00  0.00    -0.137 Cl
HETATM    6  C5  UNL     1      22.188   2.947  49.780  1.00  0.00     0.284 A 
HETATM    7  F1  UNL     1      21.097   3.148  49.002  1.00  0.00    -0.198 F 
HETATM    8  N1  UNL     1      22.741   3.887  49.415  1.00  0.00    -0.247 NA
HETATM    9  C6  UNL     1      22.780   5.006  48.600  1.00  0.00     0.098 C 
HETATM   10  C7  UNL     1      23.765   5.943  48.393  1.00  0.00     0.065 C 
HETATM   11  C8  UNL     1      25.073   6.724  48.477  1.00  0.00     0.040 C 
HETATM   12  C9  UNL     1      26.166   6.537  49.255  1.00  0.00     0.139 C 
HETATM   13  N2  UNL     1      25.901   5.361  50.131  1.00  0.00    -0.304 N 
HETATM   14  C10 UNL     1      26.657   4.432  49.380  1.00  0.00     0.248 C 
HETATM   15  O2  UNL     1      27.036   5.266  48.466  1.00  0.00    -0.268 OA
HETATM   16  C11 UNL     1      26.835   3.067  49.654  1.00  0.00     0.091 C 
HETATM   17  C12 UNL     1      26.258   2.565  50.705  1.00  0.00     0.091 C 
HETATM   18  N3  UNL     1      25.731   1.851  51.770  1.00  0.00    -0.389 N 
HETATM   19  C13 UNL     1      26.790   0.970  52.218  1.00  0.00     0.149 C 
HETATM   20  H10 UNL     1      25.359   6.133  50.629  1.00  0.00     0.171 HD
ENDROOT
BRANCH  12  21
HETATM   21  O1  UNL     1      26.979   7.546  48.853  1.00  0.00    -0.346 OA
HETATM   22  H9  UNL     1      27.695   7.344  48.160  1.00  0.00     0.219 HD
ENDBRANCH  12  21
TORSDOF 1
ENDMDL
MODEL 6
REMARK VINA RESULT:      -6.7      2.900      4.488
REMARK  1 active torsions:
REMARK  status: ('A' for Active; 'I' for Inactive)
REMARK    1  A    between atoms: C9_12  and  O1_13 
ROOT
HETATM    1  C1  UNL     1      20.778   2.990  52.549  1.00  0.00     0.033 C 
HETATM    2  C2  UNL     1      20.322   1.609  52.110  1.00  0.00     0.085 C 
HETATM    3  C3  UNL     1      20.321   1.540  50.640  1.00  0.00     0.047 C 
HETATM    4  C4  UNL     1      21.527   1.922  50.218  1.00  0.00     0.131 A 
HETATM    5 CL1  UNL     1      20.918   1.642  48.542  1.00  0.00    -0.137 Cl
HETATM    6  C5  UNL     1      22.648   2.354  49.386  1.00  0.00     0.284 A 
HETATM    7  F1  UNL     1      23.177   2.746  48.201  1.00  0.00    -0.198 F 
HETATM    8  N1  UNL     1      23.631   2.468  49.972  1.00  0.00    -0.247 NA
HETATM    9  C6  UNL     1      24.980   2.780  49.988  1.00  0.00     0.098 C 
HETATM   10  C7  UNL     1      25.914   2.715  50.996  1.00  0.00     0.065 C 
HETATM   11  C8  UNL     1      26.582   2.502  52.350  1.00  0.00     0.040 C 
HETATM   12  C9  UNL     1      26.063   2.118  53.541  1.00  0.00     0.139 C 
HETATM   13  N2  UNL     1      24.597   1.930  53.356  1.00  0.00    -0.304 N 
HETATM   14  C10 UNL     1      24.629   0.520  53.264  1.00  0.00     0.248 C 
HETATM   15  O2  UNL     1      25.910   0.400  53.404  1.00  0.00    -0.268 OA
HETATM   16  C11 UNL     1      23.538  -0.341  53.069  1.00  0.00     0.091 C 
HETATM   17  C12 UNL     1      22.352   0.177  52.955  1.00  0.00     0.091 C 
HETATM   18  N3  UNL     1      21.020   0.535  52.813  1.00  0.00    -0.389 N 
HETATM   19  C13 UNL     1      20.266  -0.441  53.574  1.00  0.00     0.149 C 
HETATM   20  H10 UNL     1      24.674   2.990  53.438  1.00  0.00     0.171 HD
ENDROOT
BRANCH  12  21
HETATM   21  O1  UNL     1      27.159   2.106  54.340  1.00  0.00    -0.346 OA
HETATM   22  H9  UNL     1      27.978   2.633  54.048  1.00  0.00     0.219 HD
ENDBRANCH  12  21
TORSDOF 1
ENDMDL
MODEL 7
REMARK VINA RESULT:      -6.6      2.650      3.962
REMARK  1 active torsions:
REMARK  status: ('A' for Active; 'I' for Inactive)
REMARK    1  A    between atoms: C9_12  and  O1_13 
ROOT
HETATM    1  C1  UNL     1      25.986   2.858  53.439  1.00  0.00     0.033 C 
HETATM    2  C2  UNL     1      26.533   2.241  52.163  1.00  0.00     0.085 C 
HETATM    3  C3  UNL     1      26.682   0.789  52.348  1.00  0.00     0.047 C 
HETATM    4  C4  UNL     1      25.510   0.315  52.773  1.00  0.00     0.131 A 
HETATM    5 CL1  UNL     1      26.292  -1.312  52.797  1.00  0.00    -0.137 Cl
HETATM    6  C5  UNL     1      24.462  -0.544  53.320  1.00  0.00     0.284 A 
HETATM    7  F1  UNL     1      24.039  -1.694  53.899  1.00  0.00    -0.198 F 
HETATM    8  N1  UNL     1      23.423  -0.052  53.312  1.00  0.00    -0.247 NA
HETATM    9  C6  UNL     1      22.068  -0.123  53.591  1.00  0.00     0.098 C 
HETATM   10  C7  UNL     1      21.042   0.757  53.336  1.00  0.00     0.065 C 
HETATM   11  C8  UNL     1      20.252   1.980  52.880  1.00  0.00     0.040 C 
HETATM   12  C9  UNL     1      20.664   3.136  52.308  1.00  0.00     0.139 C 
HETATM   13  N2  UNL     1      22.148   3.074  52.183  1.00  0.00    -0.304 N 
HETATM   14  C10 UNL     1      22.177   2.743  50.809  1.00  0.00     0.248 C 
HETATM   15  O2  UNL     1      20.894   2.727  50.642  1.00  0.00    -0.268 OA
HETATM   16  C11 UNL     1      23.313   2.519  50.016  1.00  0.00     0.091 C 
HETATM   17  C12 UNL     1      24.485   2.618  50.568  1.00  0.00     0.091 C 
HETATM   18  N3  UNL     1      25.810   2.677  50.971  1.00  0.00    -0.389 N 
HETATM   19  C13 UNL     1      26.521   3.336  49.894  1.00  0.00     0.149 C 
HETATM   20  H10 UNL     1      22.024   3.326  53.211  1.00  0.00     0.171 HD
ENDROOT
BRANCH  12  21
HETATM   21  O1  UNL     1      19.496   3.804  52.137  1.00  0.00    -0.346 OA
HETATM   22  H9  UNL     1      19.183   3.999  51.189  1.00  0.00     0.219 HD
ENDBRANCH  12  21
TORSDOF 1
ENDMDL
MODEL 8
REMARK VINA RESULT:      -6.4      2.780      3.762
REMARK  1 active torsions:
REMARK  status: ('A' for Active; 'I' for Inactive)
REMARK    1  A    between atoms: C9_12  and  O1_13 
ROOT
HETATM    1  C1  UNL     1      24.909   7.147  50.697  1.00  0.00     0.033 C 
HETATM    2  C2  UNL     1      24.982   6.966  49.191  1.00  0.00     0.085 C 
HETATM    3  C3  UNL     1      26.088   6.051  48.863  1.00  0.00     0.047 C 
HETATM    4  C4  UNL     1      25.916   4.939  49.579  1.00  0.00     0.131 A 
HETATM    5 CL1  UNL     1      27.422   4.324  48.797  1.00  0.00    -0.137 Cl
HETATM    6  C5  UNL     1      26.123   3.651  50.237  1.00  0.00     0.284 A 
HETATM    7  F1  UNL     1      26.898   2.591  50.575  1.00  0.00    -0.198 F 
HETATM    8  N1  UNL     1      25.197   3.279  50.808  1.00  0.00    -0.247 NA
HETATM    9  C6  UNL     1      24.589   2.314  51.593  1.00  0.00     0.098 C 
HETATM   10  C7  UNL     1      23.300   2.205  52.060  1.00  0.00     0.065 C 
HETATM   11  C8  UNL     1      21.829   2.485  52.356  1.00  0.00     0.040 C 
HETATM   12  C9  UNL     1      21.048   3.542  52.030  1.00  0.00     0.139 C 
HETATM   13  N2  UNL     1      21.894   4.516  51.285  1.00  0.00    -0.304 N 
HETATM   14  C10 UNL     1      21.432   4.170  49.994  1.00  0.00     0.248 C 
HETATM   15  O2  UNL     1      20.607   3.252  50.382  1.00  0.00    -0.268 OA
HETATM   16  C11 UNL     1      21.843   4.724  48.771  1.00  0.00     0.091 C 
HETATM   17  C12 UNL     1      22.743   5.660  48.786  1.00  0.00     0.091 C 
HETATM   18  N3  UNL     1      23.684   6.661  48.595  1.00  0.00    -0.389 N 
HETATM   19  C13 UNL     1      23.140   7.523  47.565  1.00  0.00     0.149 C 
HETATM   20  H10 UNL     1      22.177   4.707  52.295  1.00  0.00     0.171 HD
ENDROOT
BRANCH  12  21
HETATM   21  O1  UNL     1      19.853   3.191  52.567  1.00  0.00    -0.346 OA
HETATM   22  H9  UNL     1      19.388   2.358  52.214  1.00  0.00     0.219 HD
ENDBRANCH  12  21
TORSDOF 1
ENDMDL
MODEL 9
REMARK VINA RESULT:      -6.3      8.027     10.015
REMARK  1 active torsions:
REMARK  status: ('A' for Active; 'I' for Inactive)
REMARK    1  A    between atoms: C9_12  and  O1_13 
ROOT
HETATM    1  C1  UNL     1      27.425   9.330  50.204  1.00  0.00     0.033 C 
HETATM    2  C2  UNL     1      26.337   8.778  49.300  1.00  0.00     0.085 C 
HETATM    3  C3  UNL     1      26.277   9.576  48.065  1.00  0.00     0.047 C 
HETATM    4  C4  UNL     1      27.506   9.612  47.548  1.00  0.00     0.131 A 
HETATM    5 CL1  UNL     1      26.810  10.619  46.222  1.00  0.00    -0.137 Cl
HETATM    6  C5  UNL     1      28.679   9.953  46.747  1.00  0.00     0.284 A 
HETATM    7  F1  UNL     1      29.313  10.705  45.814  1.00  0.00    -0.198 F 
HETATM    8  N1  UNL     1      29.598   9.306  46.989  1.00  0.00    -0.247 NA
HETATM    9  C6  UNL     1      30.924   8.983  46.754  1.00  0.00     0.098 C 
HETATM   10  C7  UNL     1      31.719   7.984  47.267  1.00  0.00     0.065 C 
HETATM   11  C8  UNL     1      32.215   6.786  48.071  1.00  0.00     0.040 C 
HETATM   12  C9  UNL     1      31.594   6.033  49.010  1.00  0.00     0.139 C 
HETATM   13  N2  UNL     1      30.226   6.589  49.202  1.00  0.00    -0.304 N 
HETATM   14  C10 UNL     1      29.551   5.622  48.423  1.00  0.00     0.248 C 
HETATM   15  O2  UNL     1      30.605   4.946  48.096  1.00  0.00    -0.268 OA
HETATM   16  C11 UNL     1      28.173   5.554  48.164  1.00  0.00     0.091 C 
HETATM   17  C12 UNL     1      27.400   6.461  48.680  1.00  0.00     0.091 C 
HETATM   18  N3  UNL     1      26.419   7.329  49.137  1.00  0.00    -0.389 N 
HETATM   19  C13 UNL     1      25.293   6.494  49.503  1.00  0.00     0.149 C 
HETATM   20  H10 UNL     1      30.821   7.268  49.769  1.00  0.00     0.171 HD
ENDROOT
BRANCH  12  21
HETATM   21  O1  UNL     1      32.552   5.127  49.330  1.00  0.00    -0.346 OA
HETATM   22  H9  UNL     1      32.941   5.145  50.270  1.00  0.00     0.219 HD
ENDBRANCH  12  21
TORSDOF 1
ENDMDL
