MODEL 1
REMARK VINA RESULT:      -8.4      0.000      0.000
REMARK  2 active torsions:
REMARK  status: ('A' for Active; 'I' for Inactive)
REMARK    1  A    between atoms: S1_1  and  C1_2 
REMARK    2  A    between atoms: C1_2  and  C2_3 
ROOT
HETATM    1  C2  UNL     1      26.609   0.104  52.221  1.00  0.00     0.052 A 
HETATM    2  C3  UNL     1      26.453   1.538  51.964  1.00  0.00    -0.003 A 
HETATM    3  C4  UNL     1      25.168   1.650  52.259  1.00  0.00    -0.014 A 
HETATM    4  C5  UNL     1      25.165   0.216  52.556  1.00  0.00    -0.037 A 
HETATM    5  C6  UNL     1      23.880   0.090  52.900  1.00  0.00     0.021 A 
HETATM    6  C7  UNL     1      23.067   1.338  52.845  1.00  0.00    -0.017 A 
HETATM    7  C8  UNL     1      23.886   2.322  52.438  1.00  0.00     0.026 A 
HETATM    8  S2  UNL     1      23.340   3.951  52.246  1.00  0.00    -0.088 SA
HETATM    9  C9  UNL     1      24.043   4.957  51.000  1.00  0.00     0.013 A 
HETATM   10  C10 UNL     1      24.223   6.273  51.453  1.00  0.00     0.019 A 
HETATM   11  C11 UNL     1      24.769   7.277  50.637  1.00  0.00     0.001 A 
HETATM   12  C12 UNL     1      25.145   6.969  49.343  1.00  0.00     0.001 A 
HETATM   13  C13 UNL     1      24.963   5.668  48.909  1.00  0.00     0.010 A 
HETATM   14  C14 UNL     1      24.428   4.677  49.704  1.00  0.00    -0.024 A 
HETATM   15  C15 UNL     1      24.243   3.283  49.209  1.00  0.00     0.158 C 
HETATM   16  N1  UNL     1      22.889   2.806  49.565  1.00  0.00    -0.397 N 
HETATM   17  C16 UNL     1      22.141   1.558  49.470  1.00  0.00     0.065 C 
HETATM   18  C17 UNL     1      21.895   1.167  50.708  1.00  0.00     0.059 C 
HETATM   19  C18 UNL     1      21.226   0.060  51.317  1.00  0.00    -0.004 C 
HETATM   20  C19 UNL     1      20.782   0.772  52.331  1.00  0.00    -0.028 C 
HETATM   21  C20 UNL     1      21.657   1.133  53.256  1.00  0.00     0.024 C 
HETATM   22  H13 UNL     1      22.266   3.563  49.998  1.00  0.00     0.158 HD
ENDROOT
BRANCH   1  23
HETATM   23  C1  UNL     1      27.462  -0.279  53.400  1.00  0.00     0.084 C 
BRANCH  23  24
HETATM   24  S1  UNL     1      28.713   1.010  53.648  1.00  0.00    -0.181 SA
HETATM   25  H1  UNL     1      28.531   1.994  52.660  1.00  0.00     0.101 HD
ENDBRANCH  23  24
ENDBRANCH   1  23
TORSDOF 2
ENDMDL
MODEL 2
REMARK VINA RESULT:      -7.6      2.043      5.510
REMARK  2 active torsions:
REMARK  status: ('A' for Active; 'I' for Inactive)
REMARK    1  A    between atoms: S1_1  and  C1_2 
REMARK    2  A    between atoms: C1_2  and  C2_3 
ROOT
HETATM    1  C2  UNL     1      21.562   0.131  51.959  1.00  0.00     0.052 A 
HETATM    2  C3  UNL     1      22.841  -0.049  52.651  1.00  0.00    -0.003 A 
HETATM    3  C4  UNL     1      23.212   1.221  52.708  1.00  0.00    -0.014 A 
HETATM    4  C5  UNL     1      21.966   1.561  52.016  1.00  0.00    -0.037 A 
HETATM    5  C6  UNL     1      22.131   2.885  51.958  1.00  0.00     0.021 A 
HETATM    6  C7  UNL     1      23.388   3.411  52.562  1.00  0.00    -0.017 A 
HETATM    7  C8  UNL     1      24.069   2.354  53.034  1.00  0.00     0.026 A 
HETATM    8  S2  UNL     1      25.595   2.525  53.827  1.00  0.00    -0.088 SA
HETATM    9  C9  UNL     1      26.800   1.268  53.664  1.00  0.00     0.013 A 
HETATM   10  C10 UNL     1      27.478   1.055  54.874  1.00  0.00     0.019 A 
HETATM   11  C11 UNL     1      28.496   0.097  55.002  1.00  0.00     0.001 A 
HETATM   12  C12 UNL     1      28.851  -0.667  53.906  1.00  0.00     0.001 A 
HETATM   13  C13 UNL     1      28.174  -0.448  52.720  1.00  0.00     0.010 A 
HETATM   14  C14 UNL     1      27.173   0.489  52.585  1.00  0.00    -0.024 A 
HETATM   15  C15 UNL     1      26.462   0.704  51.293  1.00  0.00     0.158 C 
HETATM   16  N1  UNL     1      26.379   2.153  51.008  1.00  0.00    -0.397 N 
HETATM   17  C16 UNL     1      25.751   3.006  50.004  1.00  0.00     0.065 C 
HETATM   18  C17 UNL     1      24.856   3.742  50.638  1.00  0.00     0.059 C 
HETATM   19  C18 UNL     1      23.917   4.754  50.266  1.00  0.00    -0.004 C 
HETATM   20  C19 UNL     1      24.047   5.416  51.397  1.00  0.00    -0.028 C 
HETATM   21  C20 UNL     1      23.499   4.888  52.480  1.00  0.00     0.024 C 
HETATM   22  H13 UNL     1      26.927   2.760  51.699  1.00  0.00     0.158 HD
ENDROOT
BRANCH   1  23
HETATM   23  C1  UNL     1      20.319  -0.164  52.755  1.00  0.00     0.084 C 
BRANCH  23  24
HETATM   24  S1  UNL     1      20.764  -1.258  54.131  1.00  0.00    -0.181 SA
HETATM   25  H1  UNL     1      19.582  -1.810  54.654  1.00  0.00     0.101 HD
ENDBRANCH  23  24
ENDBRANCH   1  23
TORSDOF 2
ENDMDL
MODEL 3
REMARK VINA RESULT:      -7.6      2.766      5.263
REMARK  2 active torsions:
REMARK  status: ('A' for Active; 'I' for Inactive)
REMARK    1  A    between atoms: S1_1  and  C1_2 
REMARK    2  A    between atoms: C1_2  and  C2_3 
ROOT
HETATM    1  C2  UNL     1      20.987   4.350  47.639  1.00  0.00     0.052 A 
HETATM    2  C3  UNL     1      22.405   4.711  47.550  1.00  0.00    -0.003 A 
HETATM    3  C4  UNL     1      22.866   3.921  48.507  1.00  0.00    -0.014 A 
HETATM    4  C5  UNL     1      21.492   3.458  48.715  1.00  0.00    -0.037 A 
HETATM    5  C6  UNL     1      21.726   2.592  49.705  1.00  0.00     0.021 A 
HETATM    6  C7  UNL     1      23.146   2.471  50.141  1.00  0.00    -0.017 A 
HETATM    7  C8  UNL     1      23.864   3.313  49.380  1.00  0.00     0.026 A 
HETATM    8  S2  UNL     1      25.575   3.479  49.555  1.00  0.00    -0.088 SA
HETATM    9  C9  UNL     1      26.329   5.028  49.260  1.00  0.00     0.013 A 
HETATM   10  C10 UNL     1      27.556   4.878  48.596  1.00  0.00     0.019 A 
HETATM   11  C11 UNL     1      28.358   5.976  48.247  1.00  0.00     0.001 A 
HETATM   12  C12 UNL     1      27.934   7.253  48.565  1.00  0.00     0.001 A 
HETATM   13  C13 UNL     1      26.723   7.388  49.219  1.00  0.00     0.010 A 
HETATM   14  C14 UNL     1      25.929   6.316  49.564  1.00  0.00    -0.024 A 
HETATM   15  C15 UNL     1      24.629   6.492  50.270  1.00  0.00     0.158 C 
HETATM   16  N1  UNL     1      24.544   5.538  51.398  1.00  0.00    -0.397 N 
HETATM   17  C16 UNL     1      23.542   5.139  52.380  1.00  0.00     0.065 C 
HETATM   18  C17 UNL     1      23.257   3.871  52.139  1.00  0.00     0.059 C 
HETATM   19  C18 UNL     1      22.385   2.893  52.709  1.00  0.00    -0.004 C 
HETATM   20  C19 UNL     1      23.210   1.894  52.480  1.00  0.00    -0.028 C 
HETATM   21  C20 UNL     1      23.339   1.481  51.229  1.00  0.00     0.024 C 
HETATM   22  H13 UNL     1      25.449   4.991  51.568  1.00  0.00     0.158 HD
ENDROOT
BRANCH   1  23
HETATM   23  C1  UNL     1      20.410   3.598  46.469  1.00  0.00     0.084 C 
BRANCH  23  24
HETATM   24  S1  UNL     1      21.386   3.994  44.993  1.00  0.00    -0.181 SA
HETATM   25  H1  UNL     1      20.704   3.498  43.869  1.00  0.00     0.101 HD
ENDBRANCH  23  24
ENDBRANCH   1  23
TORSDOF 2
ENDMDL
MODEL 4
REMARK VINA RESULT:      -7.4      7.129     10.482
REMARK  2 active torsions:
REMARK  status: ('A' for Active; 'I' for Inactive)
REMARK    1  A    between atoms: S1_1  and  C1_2 
REMARK    2  A    between atoms: C1_2  and  C2_3 
ROOT
HETATM    1  C2  UNL     1      27.554   6.389  48.057  1.00  0.00     0.052 A 
HETATM    2  C3  UNL     1      28.902   5.815  48.114  1.00  0.00    -0.003 A 
HETATM    3  C4  UNL     1      29.563   6.906  48.465  1.00  0.00    -0.014 A 
HETATM    4  C5  UNL     1      28.285   7.622  48.451  1.00  0.00    -0.037 A 
HETATM    5  C6  UNL     1      28.735   8.831  48.799  1.00  0.00     0.021 A 
HETATM    6  C7  UNL     1      30.203   8.936  49.032  1.00  0.00    -0.017 A 
HETATM    7  C8  UNL     1      30.723   7.716  48.820  1.00  0.00     0.026 A 
HETATM    8  S2  UNL     1      32.412   7.394  48.993  1.00  0.00    -0.088 SA
HETATM    9  C9  UNL     1      33.175   6.200  47.968  1.00  0.00     0.013 A 
HETATM   10  C10 UNL     1      34.116   5.445  48.684  1.00  0.00     0.019 A 
HETATM   11  C11 UNL     1      34.867   4.422  48.083  1.00  0.00     0.001 A 
HETATM   12  C12 UNL     1      34.680   4.141  46.742  1.00  0.00     0.001 A 
HETATM   13  C13 UNL     1      33.748   4.891  46.049  1.00  0.00     0.010 A 
HETATM   14  C14 UNL     1      33.007   5.897  46.631  1.00  0.00    -0.024 A 
HETATM   15  C15 UNL     1      32.010   6.690  45.858  1.00  0.00     0.158 C 
HETATM   16  N1  UNL     1      32.192   8.130  46.145  1.00  0.00    -0.397 N 
HETATM   17  C16 UNL     1      31.512   9.377  45.810  1.00  0.00     0.065 C 
HETATM   18  C17 UNL     1      31.053   9.876  46.944  1.00  0.00     0.059 C 
HETATM   19  C18 UNL     1      30.315  11.039  47.324  1.00  0.00    -0.004 C 
HETATM   20  C19 UNL     1      30.935  11.165  48.478  1.00  0.00    -0.028 C 
HETATM   21  C20 UNL     1      30.633  10.298  49.433  1.00  0.00     0.024 C 
HETATM   22  H13 UNL     1      33.052   8.344  46.747  1.00  0.00     0.158 HD
ENDROOT
BRANCH   1  23
HETATM   23  C1  UNL     1      26.579   5.920  49.103  1.00  0.00     0.084 C 
BRANCH  23  24
HETATM   24  S1  UNL     1      26.756   4.125  49.291  1.00  0.00    -0.181 SA
HETATM   25  H1  UNL     1      27.469   3.875  50.476  1.00  0.00     0.101 HD
ENDBRANCH  23  24
ENDBRANCH   1  23
TORSDOF 2
ENDMDL
MODEL 5
REMARK VINA RESULT:      -7.2      2.761      4.913
REMARK  2 active torsions:
REMARK  status: ('A' for Active; 'I' for Inactive)
REMARK    1  A    between atoms: S1_1  and  C1_2 
REMARK    2  A    between atoms: C1_2  and  C2_3 
ROOT
HETATM    1  C2  UNL     1      20.776  -0.129  54.138  1.00  0.00     0.052 A 
HETATM    2  C3  UNL     1      20.497   0.635  52.919  1.00  0.00    -0.003 A 
HETATM    3  C4  UNL     1      21.743   0.806  52.507  1.00  0.00    -0.014 A 
HETATM    4  C5  UNL     1      22.180   0.055  53.686  1.00  0.00    -0.037 A 
HETATM    5  C6  UNL     1      23.497   0.101  53.470  1.00  0.00     0.021 A 
HETATM    6  C7  UNL     1      23.930   0.825  52.241  1.00  0.00    -0.017 A 
HETATM    7  C8  UNL     1      22.817   1.269  51.635  1.00  0.00     0.026 A 
HETATM    8  S2  UNL     1      22.869   2.162  50.156  1.00  0.00    -0.088 SA
HETATM    9  C9  UNL     1      21.669   3.396  49.847  1.00  0.00     0.013 A 
HETATM   10  C10 UNL     1      21.267   3.386  48.503  1.00  0.00     0.019 A 
HETATM   11  C11 UNL     1      20.311   4.285  48.002  1.00  0.00     0.001 A 
HETATM   12  C12 UNL     1      19.743   5.214  48.852  1.00  0.00     0.001 A 
HETATM   13  C13 UNL     1      20.148   5.213  50.175  1.00  0.00     0.010 A 
HETATM   14  C14 UNL     1      21.084   4.334  50.675  1.00  0.00    -0.024 A 
HETATM   15  C15 UNL     1      21.501   4.357  52.106  1.00  0.00     0.158 C 
HETATM   16  N1  UNL     1      22.977   4.294  52.192  1.00  0.00    -0.397 N 
HETATM   17  C16 UNL     1      23.978   4.183  53.248  1.00  0.00     0.065 C 
HETATM   18  C17 UNL     1      24.590   3.025  53.071  1.00  0.00     0.059 C 
HETATM   19  C18 UNL     1      25.639   2.313  53.730  1.00  0.00    -0.004 C 
HETATM   20  C19 UNL     1      26.106   1.791  52.616  1.00  0.00    -0.028 C 
HETATM   21  C20 UNL     1      25.400   0.823  52.051  1.00  0.00     0.024 C 
HETATM   22  H13 UNL     1      23.467   4.358  51.242  1.00  0.00     0.158 HD
ENDROOT
BRANCH   1  23
HETATM   23  C1  UNL     1      20.340  -1.570  54.142  1.00  0.00     0.084 C 
BRANCH  23  24
HETATM   24  S1  UNL     1      18.625  -1.654  53.560  1.00  0.00    -0.181 SA
HETATM   25  H1  UNL     1      18.036  -0.391  53.744  1.00  0.00     0.101 HD
ENDBRANCH  23  24
ENDBRANCH   1  23
TORSDOF 2
ENDMDL
MODEL 6
REMARK VINA RESULT:      -7.1      1.909      4.976
REMARK  2 active torsions:
REMARK  status: ('A' for Active; 'I' for Inactive)
REMARK    1  A    between atoms: S1_1  and  C1_2 
REMARK    2  A    between atoms: C1_2  and  C2_3 
ROOT
HETATM    1  C2  UNL     1      25.174   0.960  53.583  1.00  0.00     0.052 A 
HETATM    2  C3  UNL     1      23.851   0.764  52.984  1.00  0.00    -0.003 A 
HETATM    3  C4  UNL     1      24.018   1.503  51.898  1.00  0.00    -0.014 A 
HETATM    4  C5  UNL     1      25.375   1.792  52.368  1.00  0.00    -0.037 A 
HETATM    5  C6  UNL     1      25.767   2.579  51.362  1.00  0.00     0.021 A 
HETATM    6  C7  UNL     1      24.759   2.810  50.288  1.00  0.00    -0.017 A 
HETATM    7  C8  UNL     1      23.655   2.128  50.632  1.00  0.00     0.026 A 
HETATM    8  S2  UNL     1      22.235   2.121  49.646  1.00  0.00    -0.088 SA
HETATM    9  C9  UNL     1      20.660   2.014  50.398  1.00  0.00     0.013 A 
HETATM   10  C10 UNL     1      19.799   1.189  49.658  1.00  0.00     0.019 A 
HETATM   11  C11 UNL     1      18.474   0.944  50.053  1.00  0.00     0.001 A 
HETATM   12  C12 UNL     1      17.991   1.531  51.208  1.00  0.00     0.001 A 
HETATM   13  C13 UNL     1      18.850   2.341  51.928  1.00  0.00     0.010 A 
HETATM   14  C14 UNL     1      20.152   2.586  51.548  1.00  0.00    -0.024 A 
HETATM   15  C15 UNL     1      21.054   3.465  52.345  1.00  0.00     0.158 C 
HETATM   16  N1  UNL     1      21.750   4.408  51.443  1.00  0.00    -0.397 N 
HETATM   17  C16 UNL     1      22.795   5.420  51.562  1.00  0.00     0.065 C 
HETATM   18  C17 UNL     1      23.818   4.995  50.842  1.00  0.00     0.059 C 
HETATM   19  C18 UNL     1      25.125   5.486  50.534  1.00  0.00    -0.004 C 
HETATM   20  C19 UNL     1      25.123   4.986  49.317  1.00  0.00    -0.028 C 
HETATM   21  C20 UNL     1      25.263   3.675  49.194  1.00  0.00     0.024 C 
HETATM   22  H13 UNL     1      21.406   4.369  50.430  1.00  0.00     0.158 HD
ENDROOT
BRANCH   1  23
HETATM   23  C1  UNL     1      26.075  -0.246  53.630  1.00  0.00     0.084 C 
BRANCH  23  24
HETATM   24  S1  UNL     1      27.591   0.204  54.517  1.00  0.00    -0.181 SA
HETATM   25  H1  UNL     1      28.654  -0.540  53.977  1.00  0.00     0.101 HD
ENDBRANCH  23  24
ENDBRANCH   1  23
TORSDOF 2
ENDMDL
MODEL 7
REMARK VINA RESULT:      -6.7      2.912      6.492
REMARK  2 active torsions:
REMARK  status: ('A' for Active; 'I' for Inactive)
REMARK    1  A    between atoms: S1_1  and  C1_2 
REMARK    2  A    between atoms: C1_2  and  C2_3 
ROOT
HETATM    1  C2  UNL     1      26.828   7.417  48.522  1.00  0.00     0.052 A 
HETATM    2  C3  UNL     1      26.438   6.158  49.164  1.00  0.00    -0.003 A 
HETATM    3  C4  UNL     1      25.197   6.084  48.709  1.00  0.00    -0.014 A 
HETATM    4  C5  UNL     1      25.436   7.345  48.003  1.00  0.00    -0.037 A 
HETATM    5  C6  UNL     1      24.236   7.479  47.432  1.00  0.00     0.021 A 
HETATM    6  C7  UNL     1      23.253   6.397  47.722  1.00  0.00    -0.017 A 
HETATM    7  C8  UNL     1      23.866   5.516  48.531  1.00  0.00     0.026 A 
HETATM    8  S2  UNL     1      23.074   4.092  49.106  1.00  0.00    -0.088 SA
HETATM    9  C9  UNL     1      23.464   3.466  50.691  1.00  0.00     0.013 A 
HETATM   10  C10 UNL     1      23.510   2.064  50.686  1.00  0.00     0.019 A 
HETATM   11  C11 UNL     1      23.800   1.320  51.841  1.00  0.00     0.001 A 
HETATM   12  C12 UNL     1      24.051   1.982  53.029  1.00  0.00     0.001 A 
HETATM   13  C13 UNL     1      24.003   3.364  53.020  1.00  0.00     0.010 A 
HETATM   14  C14 UNL     1      23.719   4.102  51.891  1.00  0.00    -0.024 A 
HETATM   15  C15 UNL     1      23.674   5.591  51.913  1.00  0.00     0.158 C 
HETATM   16  N1  UNL     1      22.457   6.060  51.214  1.00  0.00    -0.397 N 
HETATM   17  C16 UNL     1      21.889   7.341  50.810  1.00  0.00     0.065 C 
HETATM   18  C17 UNL     1      21.858   7.344  49.489  1.00  0.00     0.059 C 
HETATM   19  C18 UNL     1      21.436   8.262  48.479  1.00  0.00    -0.004 C 
HETATM   20  C19 UNL     1      21.025   7.314  47.663  1.00  0.00    -0.028 C 
HETATM   21  C20 UNL     1      21.950   6.597  47.044  1.00  0.00     0.024 C 
HETATM   22  H13 UNL     1      21.792   5.270  50.930  1.00  0.00     0.158 HD
ENDROOT
BRANCH   1  23
HETATM   23  C1  UNL     1      27.868   7.324  47.438  1.00  0.00     0.084 C 
BRANCH  23  24
HETATM   24  S1  UNL     1      29.474   6.988  48.210  1.00  0.00    -0.181 SA
HETATM   25  H1  UNL     1      30.483   7.441  47.341  1.00  0.00     0.101 HD
ENDBRANCH  23  24
ENDBRANCH   1  23
TORSDOF 2
ENDMDL
MODEL 8
REMARK VINA RESULT:      -6.7      6.232      9.411
REMARK  2 active torsions:
REMARK  status: ('A' for Active; 'I' for Inactive)
REMARK    1  A    between atoms: S1_1  and  C1_2 
REMARK    2  A    between atoms: C1_2  and  C2_3 
ROOT
HETATM    1  C2  UNL     1      27.163   9.412  44.850  1.00  0.00     0.052 A 
HETATM    2  C3  UNL     1      28.380   8.760  45.341  1.00  0.00    -0.003 A 
HETATM    3  C4  UNL     1      27.848   8.091  46.352  1.00  0.00    -0.014 A 
HETATM    4  C5  UNL     1      26.552   8.665  45.981  1.00  0.00    -0.037 A 
HETATM    5  C6  UNL     1      25.806   8.092  46.929  1.00  0.00     0.021 A 
HETATM    6  C7  UNL     1      26.531   7.195  47.874  1.00  0.00    -0.017 A 
HETATM    7  C8  UNL     1      27.822   7.198  47.505  1.00  0.00     0.026 A 
HETATM    8  S2  UNL     1      29.019   6.273  48.341  1.00  0.00    -0.088 SA
HETATM    9  C9  UNL     1      30.655   6.878  48.458  1.00  0.00     0.013 A 
HETATM   10  C10 UNL     1      31.591   5.843  48.314  1.00  0.00     0.019 A 
HETATM   11  C11 UNL     1      32.975   6.071  48.372  1.00  0.00     0.001 A 
HETATM   12  C12 UNL     1      33.442   7.356  48.578  1.00  0.00     0.001 A 
HETATM   13  C13 UNL     1      32.509   8.368  48.718  1.00  0.00     0.010 A 
HETATM   14  C14 UNL     1      31.149   8.153  48.661  1.00  0.00    -0.024 A 
HETATM   15  C15 UNL     1      30.168   9.263  48.816  1.00  0.00     0.158 C 
HETATM   16  N1  UNL     1      29.104   8.856  49.761  1.00  0.00    -0.397 N 
HETATM   17  C16 UNL     1      27.847   9.411  50.251  1.00  0.00     0.065 C 
HETATM   18  C17 UNL     1      26.889   8.600  49.840  1.00  0.00     0.059 C 
HETATM   19  C18 UNL     1      25.466   8.553  49.966  1.00  0.00    -0.004 C 
HETATM   20  C19 UNL     1      25.423   7.238  50.014  1.00  0.00    -0.028 C 
HETATM   21  C20 UNL     1      25.643   6.577  48.888  1.00  0.00     0.024 C 
HETATM   22  H13 UNL     1      29.288   7.914  50.236  1.00  0.00     0.158 HD
ENDROOT
BRANCH   1  23
HETATM   23  C1  UNL     1      26.657   8.965  43.504  1.00  0.00     0.084 C 
BRANCH  23  24
HETATM   24  S1  UNL     1      24.888   9.346  43.399  1.00  0.00    -0.181 SA
HETATM   25  H1  UNL     1      24.406   9.562  44.702  1.00  0.00     0.101 HD
ENDBRANCH  23  24
ENDBRANCH   1  23
TORSDOF 2
ENDMDL
MODEL 9
REMARK VINA RESULT:      -6.5      5.477      9.907
REMARK  2 active torsions:
REMARK  status: ('A' for Active; 'I' for Inactive)
REMARK    1  A    between atoms: S1_1  and  C1_2 
REMARK    2  A    between atoms: C1_2  and  C2_3 
ROOT
HETATM    1  C2  UNL     1      27.660   9.120  44.452  1.00  0.00     0.052 A 
HETATM    2  C3  UNL     1      26.886   8.436  45.493  1.00  0.00    -0.003 A 
HETATM    3  C4  UNL     1      27.453   8.990  46.553  1.00  0.00    -0.014 A 
HETATM    4  C5  UNL     1      28.305   9.750  45.635  1.00  0.00    -0.037 A 
HETATM    5  C6  UNL     1      29.012  10.429  46.541  1.00  0.00     0.021 A 
HETATM    6  C7  UNL     1      28.673  10.157  47.967  1.00  0.00    -0.017 A 
HETATM    7  C8  UNL     1      27.686   9.247  47.969  1.00  0.00     0.026 A 
HETATM    8  S2  UNL     1      26.985   8.654  49.434  1.00  0.00    -0.088 SA
HETATM    9  C9  UNL     1      26.408   7.005  49.512  1.00  0.00     0.013 A 
HETATM   10  C10 UNL     1      25.213   6.920  50.242  1.00  0.00     0.019 A 
HETATM   11  C11 UNL     1      24.549   5.700  50.451  1.00  0.00     0.001 A 
HETATM   12  C12 UNL     1      25.082   4.539  49.923  1.00  0.00     0.001 A 
HETATM   13  C13 UNL     1      26.260   4.637  49.204  1.00  0.00     0.010 A 
HETATM   14  C14 UNL     1      26.918   5.830  48.994  1.00  0.00    -0.024 A 
HETATM   15  C15 UNL     1      28.186   5.904  48.216  1.00  0.00     0.158 C 
HETATM   16  N1  UNL     1      29.169   6.732  48.949  1.00  0.00    -0.397 N 
HETATM   17  C16 UNL     1      30.506   7.262  48.705  1.00  0.00     0.065 C 
HETATM   18  C17 UNL     1      30.395   8.578  48.679  1.00  0.00     0.059 C 
HETATM   19  C18 UNL     1      31.290   9.677  48.490  1.00  0.00    -0.004 C 
HETATM   20  C19 UNL     1      30.642  10.464  49.323  1.00  0.00    -0.028 C 
HETATM   21  C20 UNL     1      29.480  10.956  48.921  1.00  0.00     0.024 C 
HETATM   22  H13 UNL     1      28.843   7.023  49.927  1.00  0.00     0.158 HD
ENDROOT
BRANCH   1  23
HETATM   23  C1  UNL     1      26.911  10.103  43.593  1.00  0.00     0.084 C 
BRANCH  23  24
HETATM   24  S1  UNL     1      28.114  11.182  42.772  1.00  0.00    -0.181 SA
HETATM   25  H1  UNL     1      27.406  12.149  42.036  1.00  0.00     0.101 HD
ENDBRANCH  23  24
ENDBRANCH   1  23
TORSDOF 2
ENDMDL
