MODEL 1
REMARK VINA RESULT:      -6.5      0.000      0.000
REMARK  5 active torsions:
REMARK  status: ('A' for Active; 'I' for Inactive)
REMARK    1  A    between atoms: O1_2  and  C2_3 
REMARK    2  A    between atoms: C2_3  and  C3_4 
REMARK    3  A    between atoms: C8_10  and  N2_11 
REMARK    4  A    between atoms: N2_11  and  C9_12 
REMARK    5  A    between atoms: C14_18  and  O2_19 
ROOT
HETATM    1  C3  UNL     1      25.721   1.134  52.556  1.00  0.00    -0.019 C 
HETATM    2  C4  UNL     1      25.186   0.053  53.113  1.00  0.00    -0.018 C 
HETATM    3  C5  UNL     1      23.807  -0.133  53.580  1.00  0.00     0.029 C 
HETATM    4  C6  UNL     1      22.765   0.271  52.579  1.00  0.00     0.023 C 
HETATM    5  C7  UNL     1      22.872   1.652  52.050  1.00  0.00     0.116 C 
HETATM    6  N1  UNL     1      23.780   2.527  52.727  1.00  0.00    -0.398 N 
HETATM    7  C8  UNL     1      25.130   2.473  52.228  1.00  0.00     0.209 C 
HETATM    8  H13 UNL     1      23.689   2.557  53.752  1.00  0.00     0.155 HD
ENDROOT
BRANCH   7   9
HETATM    9  N2  UNL     1      25.055   2.617  50.777  1.00  0.00    -0.363 N 
HETATM   10  H15 UNL     1      24.798   1.786  50.182  1.00  0.00     0.162 HD
BRANCH   9  11
HETATM   11  C9  UNL     1      25.313   3.844  50.070  1.00  0.00     0.065 A 
HETATM   12  C10 UNL     1      26.625   3.993  49.605  1.00  0.00     0.051 A 
HETATM   13  C11 UNL     1      27.004   5.119  48.913  1.00  0.00     0.013 A 
HETATM   14 BR1  UNL     1      28.771   5.395  48.250  1.00  0.00    -0.051 Br
HETATM   15  C12 UNL     1      26.054   6.103  48.688  1.00  0.00     0.022 A 
HETATM   16  C13 UNL     1      24.769   5.970  49.136  1.00  0.00     0.040 A 
HETATM   17  C14 UNL     1      24.373   4.834  49.838  1.00  0.00     0.094 A 
BRANCH  17  18
HETATM   18  O2  UNL     1      23.148   4.525  50.359  1.00  0.00    -0.354 OA
HETATM   19  C15 UNL     1      22.435   5.460  51.110  1.00  0.00     0.210 C 
ENDBRANCH  17  18
ENDBRANCH   9  11
ENDBRANCH   7   9
BRANCH   1  20
HETATM   20  C2  UNL     1      27.159   1.201  52.116  1.00  0.00     0.205 C 
BRANCH  20  21
HETATM   21  O1  UNL     1      27.712   2.436  52.439  1.00  0.00    -0.392 OA
HETATM   22  C1  UNL     1      28.575   2.337  53.527  1.00  0.00     0.201 C 
ENDBRANCH  20  21
ENDBRANCH   1  20
TORSDOF 5
ENDMDL
MODEL 2
REMARK VINA RESULT:      -6.4      3.187      6.608
REMARK  5 active torsions:
REMARK  status: ('A' for Active; 'I' for Inactive)
REMARK    1  A    between atoms: O1_2  and  C2_3 
REMARK    2  A    between atoms: C2_3  and  C3_4 
REMARK    3  A    between atoms: C8_10  and  N2_11 
REMARK    4  A    between atoms: N2_11  and  C9_12 
REMARK    5  A    between atoms: C14_18  and  O2_19 
ROOT
HETATM    1  C3  UNL     1      23.741   3.742  50.581  1.00  0.00    -0.019 C 
HETATM    2  C4  UNL     1      24.387   4.423  49.641  1.00  0.00    -0.018 C 
HETATM    3  C5  UNL     1      25.835   4.608  49.496  1.00  0.00     0.029 C 
HETATM    4  C6  UNL     1      26.624   3.334  49.580  1.00  0.00     0.023 C 
HETATM    5  C7  UNL     1      26.401   2.512  50.793  1.00  0.00     0.116 C 
HETATM    6  N1  UNL     1      25.671   3.127  51.858  1.00  0.00    -0.398 N 
HETATM    7  C8  UNL     1      24.243   2.966  51.762  1.00  0.00     0.209 C 
HETATM    8  H13 UNL     1      25.992   4.066  52.134  1.00  0.00     0.155 HD
ENDROOT
BRANCH   7   9
HETATM    9  N2  UNL     1      23.988   1.545  51.542  1.00  0.00    -0.363 N 
HETATM   10  H15 UNL     1      24.192   1.118  50.599  1.00  0.00     0.162 HD
BRANCH   9  11
HETATM   11  C9  UNL     1      23.464   0.651  52.540  1.00  0.00     0.065 A 
HETATM   12  C10 UNL     1      22.078   0.456  52.488  1.00  0.00     0.051 A 
HETATM   13  C11 UNL     1      21.449  -0.375  53.385  1.00  0.00     0.013 A 
HETATM   14 BR1  UNL     1      19.568  -0.689  53.379  1.00  0.00    -0.051 Br
HETATM   15  C12 UNL     1      22.222  -1.014  54.342  1.00  0.00     0.022 A 
HETATM   16  C13 UNL     1      23.576  -0.833  54.403  1.00  0.00     0.040 A 
HETATM   17  C14 UNL     1      24.224   0.006  53.500  1.00  0.00     0.094 A 
BRANCH  17  18
HETATM   18  O2  UNL     1      25.554   0.309  53.405  1.00  0.00    -0.354 OA
HETATM   19  C15 UNL     1      26.354   0.372  54.545  1.00  0.00     0.210 C 
ENDBRANCH  17  18
ENDBRANCH   9  11
ENDBRANCH   7   9
BRANCH   1  20
HETATM   20  C2  UNL     1      22.240   3.625  50.622  1.00  0.00     0.205 C 
BRANCH  20  21
HETATM   21  O1  UNL     1      21.767   3.852  51.909  1.00  0.00    -0.392 OA
HETATM   22  C1  UNL     1      20.386   3.693  51.978  1.00  0.00     0.201 C 
ENDBRANCH  20  21
ENDBRANCH   1  20
TORSDOF 5
ENDMDL
MODEL 3
REMARK VINA RESULT:      -6.1      6.155      9.228
REMARK  5 active torsions:
REMARK  status: ('A' for Active; 'I' for Inactive)
REMARK    1  A    between atoms: O1_2  and  C2_3 
REMARK    2  A    between atoms: C2_3  and  C3_4 
REMARK    3  A    between atoms: C8_10  and  N2_11 
REMARK    4  A    between atoms: N2_11  and  C9_12 
REMARK    5  A    between atoms: C14_18  and  O2_19 
ROOT
HETATM    1  C3  UNL     1      29.476   7.265  48.523  1.00  0.00    -0.019 C 
HETATM    2  C4  UNL     1      28.933   8.474  48.616  1.00  0.00    -0.018 C 
HETATM    3  C5  UNL     1      29.471   9.654  49.301  1.00  0.00     0.029 C 
HETATM    4  C6  UNL     1      30.899   9.962  48.956  1.00  0.00     0.023 C 
HETATM    5  C7  UNL     1      31.866   8.855  49.151  1.00  0.00     0.116 C 
HETATM    6  N1  UNL     1      31.398   7.716  49.879  1.00  0.00    -0.398 N 
HETATM    7  C8  UNL     1      30.764   6.715  49.060  1.00  0.00     0.209 C 
HETATM    8  H13 UNL     1      30.926   7.921  50.770  1.00  0.00     0.155 HD
ENDROOT
BRANCH   7   9
HETATM    9  N2  UNL     1      31.667   6.442  47.945  1.00  0.00    -0.363 N 
HETATM   10  H15 UNL     1      31.643   7.059  47.090  1.00  0.00     0.162 HD
BRANCH   9  11
HETATM   11  C9  UNL     1      32.618   5.363  47.917  1.00  0.00     0.065 A 
HETATM   12  C10 UNL     1      32.114   4.143  47.450  1.00  0.00     0.051 A 
HETATM   13  C11 UNL     1      32.918   3.031  47.373  1.00  0.00     0.013 A 
HETATM   14 BR1  UNL     1      32.304   1.337  46.748  1.00  0.00    -0.051 Br
HETATM   15  C12 UNL     1      34.241   3.148  47.770  1.00  0.00     0.022 A 
HETATM   16  C13 UNL     1      34.747   4.333  48.228  1.00  0.00     0.040 A 
HETATM   17  C14 UNL     1      33.942   5.466  48.311  1.00  0.00     0.094 A 
BRANCH  17  18
HETATM   18  O2  UNL     1      34.264   6.724  48.738  1.00  0.00    -0.354 OA
HETATM   19  C15 UNL     1      35.443   7.340  48.320  1.00  0.00     0.210 C 
ENDBRANCH  17  18
ENDBRANCH   9  11
ENDBRANCH   7   9
BRANCH   1  20
HETATM   20  C2  UNL     1      28.821   6.127  47.786  1.00  0.00     0.205 C 
BRANCH  20  21
HETATM   21  O1  UNL     1      28.774   4.990  48.584  1.00  0.00    -0.392 OA
HETATM   22  C1  UNL     1      27.462   4.594  48.829  1.00  0.00     0.201 C 
ENDBRANCH  20  21
ENDBRANCH   1  20
TORSDOF 5
ENDMDL
MODEL 4
REMARK VINA RESULT:      -6.1      3.546      5.315
REMARK  5 active torsions:
REMARK  status: ('A' for Active; 'I' for Inactive)
REMARK    1  A    between atoms: O1_2  and  C2_3 
REMARK    2  A    between atoms: C2_3  and  C3_4 
REMARK    3  A    between atoms: C8_10  and  N2_11 
REMARK    4  A    between atoms: N2_11  and  C9_12 
REMARK    5  A    between atoms: C14_18  and  O2_19 
ROOT
HETATM    1  C3  UNL     1      20.274  -0.855  53.629  1.00  0.00    -0.019 C 
HETATM    2  C4  UNL     1      19.066  -1.332  53.345  1.00  0.00    -0.018 C 
HETATM    3  C5  UNL     1      17.963  -0.647  52.662  1.00  0.00     0.029 C 
HETATM    4  C6  UNL     1      18.362   0.021  51.378  1.00  0.00     0.023 C 
HETATM    5  C7  UNL     1      19.491   0.977  51.468  1.00  0.00     0.116 C 
HETATM    6  N1  UNL     1      19.907   1.355  52.783  1.00  0.00    -0.398 N 
HETATM    7  C8  UNL     1      20.896   0.483  53.361  1.00  0.00     0.209 C 
HETATM    8  H13 UNL     1      19.155   1.653  53.419  1.00  0.00     0.155 HD
ENDROOT
BRANCH   7   9
HETATM    9  N2  UNL     1      21.957   0.325  52.370  1.00  0.00    -0.363 N 
HETATM   10  H15 UNL     1      21.810  -0.316  51.545  1.00  0.00     0.162 HD
BRANCH   9  11
HETATM   11  C9  UNL     1      23.229   0.994  52.429  1.00  0.00     0.065 A 
HETATM   12  C10 UNL     1      24.313   0.175  52.768  1.00  0.00     0.051 A 
HETATM   13  C11 UNL     1      25.584   0.689  52.859  1.00  0.00     0.013 A 
HETATM   14 BR1  UNL     1      27.108  -0.363  53.316  1.00  0.00    -0.051 Br
HETATM   15  C12 UNL     1      25.766   2.040  52.608  1.00  0.00     0.022 A 
HETATM   16  C13 UNL     1      24.717   2.852  52.276  1.00  0.00     0.040 A 
HETATM   17  C14 UNL     1      23.424   2.342  52.180  1.00  0.00     0.094 A 
BRANCH  17  18
HETATM   18  O2  UNL     1      22.262   2.990  51.865  1.00  0.00    -0.354 OA
HETATM   19  C15 UNL     1      22.057   4.315  52.249  1.00  0.00     0.210 C 
ENDBRANCH  17  18
ENDBRANCH   9  11
ENDBRANCH   7   9
BRANCH   1  20
HETATM   20  C2  UNL     1      21.327  -1.663  54.339  1.00  0.00     0.205 C 
BRANCH  20  21
HETATM   21  O1  UNL     1      22.003  -0.877  55.266  1.00  0.00    -0.392 OA
HETATM   22  C1  UNL     1      23.211  -1.459  55.640  1.00  0.00     0.201 C 
ENDBRANCH  20  21
ENDBRANCH   1  20
TORSDOF 5
ENDMDL
MODEL 5
REMARK VINA RESULT:      -6.0      2.941      4.559
REMARK  5 active torsions:
REMARK  status: ('A' for Active; 'I' for Inactive)
REMARK    1  A    between atoms: O1_2  and  C2_3 
REMARK    2  A    between atoms: C2_3  and  C3_4 
REMARK    3  A    between atoms: C8_10  and  N2_11 
REMARK    4  A    between atoms: N2_11  and  C9_12 
REMARK    5  A    between atoms: C14_18  and  O2_19 
ROOT
HETATM    1  C3  UNL     1      25.664   0.156  53.834  1.00  0.00    -0.019 C 
HETATM    2  C4  UNL     1      26.661   0.095  54.710  1.00  0.00    -0.018 C 
HETATM    3  C5  UNL     1      28.069   0.451  54.501  1.00  0.00     0.029 C 
HETATM    4  C6  UNL     1      28.270   1.797  53.869  1.00  0.00     0.023 C 
HETATM    5  C7  UNL     1      27.559   2.025  52.588  1.00  0.00     0.116 C 
HETATM    6  N1  UNL     1      26.978   0.876  51.965  1.00  0.00    -0.398 N 
HETATM    7  C8  UNL     1      25.634   0.589  52.398  1.00  0.00     0.209 C 
HETATM    8  H13 UNL     1      27.596   0.059  51.874  1.00  0.00     0.155 HD
ENDROOT
BRANCH   7   9
HETATM    9  N2  UNL     1      24.877   1.834  52.292  1.00  0.00    -0.363 N 
HETATM   10  H15 UNL     1      24.847   2.498  53.110  1.00  0.00     0.162 HD
BRANCH   9  11
HETATM   11  C9  UNL     1      24.144   2.240  51.122  1.00  0.00     0.065 A 
HETATM   12  C10 UNL     1      22.874   1.666  50.992  1.00  0.00     0.051 A 
HETATM   13  C11 UNL     1      22.069   1.970  49.920  1.00  0.00     0.013 A 
HETATM   14 BR1  UNL     1      20.329   1.230  49.674  1.00  0.00    -0.051 Br
HETATM   15  C12 UNL     1      22.549   2.858  48.969  1.00  0.00     0.022 A 
HETATM   16  C13 UNL     1      23.788   3.425  49.083  1.00  0.00     0.040 A 
HETATM   17  C14 UNL     1      24.612   3.125  50.166  1.00  0.00     0.094 A 
BRANCH  17  18
HETATM   18  O2  UNL     1      25.867   3.587  50.449  1.00  0.00    -0.354 OA
HETATM   19  C15 UNL     1      26.751   3.925  49.424  1.00  0.00     0.210 C 
ENDBRANCH  17  18
ENDBRANCH   9  11
ENDBRANCH   7   9
BRANCH   1  20
HETATM   20  C2  UNL     1      24.251  -0.240  54.172  1.00  0.00     0.205 C 
BRANCH  20  21
HETATM   21  O1  UNL     1      23.661  -0.903  53.102  1.00  0.00    -0.392 OA
HETATM   22  C1  UNL     1      22.310  -1.146  53.339  1.00  0.00     0.201 C 
ENDBRANCH  20  21
ENDBRANCH   1  20
TORSDOF 5
ENDMDL
MODEL 6
REMARK VINA RESULT:      -6.0      2.403      4.779
REMARK  5 active torsions:
REMARK  status: ('A' for Active; 'I' for Inactive)
REMARK    1  A    between atoms: O1_2  and  C2_3 
REMARK    2  A    between atoms: C2_3  and  C3_4 
REMARK    3  A    between atoms: C8_10  and  N2_11 
REMARK    4  A    between atoms: N2_11  and  C9_12 
REMARK    5  A    between atoms: C14_18  and  O2_19 
ROOT
HETATM    1  C3  UNL     1      20.927   0.467  52.589  1.00  0.00    -0.019 C 
HETATM    2  C4  UNL     1      20.254  -0.212  53.512  1.00  0.00    -0.018 C 
HETATM    3  C5  UNL     1      20.725  -1.340  54.324  1.00  0.00     0.029 C 
HETATM    4  C6  UNL     1      22.048  -1.101  54.991  1.00  0.00     0.023 C 
HETATM    5  C7  UNL     1      23.162  -0.701  54.098  1.00  0.00     0.116 C 
HETATM    6  N1  UNL     1      22.935  -0.835  52.692  1.00  0.00    -0.398 N 
HETATM    7  C8  UNL     1      22.331   0.322  52.081  1.00  0.00     0.209 C 
HETATM    8  H13 UNL     1      22.559  -1.742  52.386  1.00  0.00     0.155 HD
ENDROOT
BRANCH   7   9
HETATM    9  N2  UNL     1      23.111   1.482  52.502  1.00  0.00    -0.363 N 
HETATM   10  H15 UNL     1      22.927   1.923  53.442  1.00  0.00     0.162 HD
BRANCH   9  11
HETATM   11  C9  UNL     1      24.145   2.095  51.710  1.00  0.00     0.065 A 
HETATM   12  C10 UNL     1      23.709   3.121  50.862  1.00  0.00     0.051 A 
HETATM   13  C11 UNL     1      24.596   3.790  50.052  1.00  0.00     0.013 A 
HETATM   14 BR1  UNL     1      24.079   5.196  48.872  1.00  0.00    -0.051 Br
HETATM   15  C12 UNL     1      25.932   3.421  50.094  1.00  0.00     0.022 A 
HETATM   16  C13 UNL     1      26.370   2.421  50.917  1.00  0.00     0.040 A 
HETATM   17  C14 UNL     1      25.482   1.737  51.743  1.00  0.00     0.094 A 
BRANCH  17  18
HETATM   18  O2  UNL     1      25.729   0.720  52.623  1.00  0.00    -0.354 OA
HETATM   19  C15 UNL     1      26.574  -0.334  52.276  1.00  0.00     0.210 C 
ENDBRANCH  17  18
ENDBRANCH   9  11
ENDBRANCH   7   9
BRANCH   1  20
HETATM   20  C2  UNL     1      20.329   1.614  51.819  1.00  0.00     0.205 C 
BRANCH  20  21
HETATM   21  O1  UNL     1      20.176   2.726  52.638  1.00  0.00    -0.392 OA
HETATM   22  C1  UNL     1      20.309   3.910  51.918  1.00  0.00     0.201 C 
ENDBRANCH  20  21
ENDBRANCH   1  20
TORSDOF 5
ENDMDL
MODEL 7
REMARK VINA RESULT:      -5.9      2.941      6.007
REMARK  5 active torsions:
REMARK  status: ('A' for Active; 'I' for Inactive)
REMARK    1  A    between atoms: O1_2  and  C2_3 
REMARK    2  A    between atoms: C2_3  and  C3_4 
REMARK    3  A    between atoms: C8_10  and  N2_11 
REMARK    4  A    between atoms: N2_11  and  C9_12 
REMARK    5  A    between atoms: C14_18  and  O2_19 
ROOT
HETATM    1  C3  UNL     1      24.215   5.049  49.691  1.00  0.00    -0.019 C 
HETATM    2  C4  UNL     1      25.019   5.775  48.921  1.00  0.00    -0.018 C 
HETATM    3  C5  UNL     1      26.486   5.803  48.922  1.00  0.00     0.029 C 
HETATM    4  C6  UNL     1      27.122   4.445  48.872  1.00  0.00     0.023 C 
HETATM    5  C7  UNL     1      26.696   3.490  49.923  1.00  0.00     0.116 C 
HETATM    6  N1  UNL     1      25.936   4.029  51.008  1.00  0.00    -0.398 N 
HETATM    7  C8  UNL     1      24.515   4.056  50.776  1.00  0.00     0.209 C 
HETATM    8  H13 UNL     1      26.328   4.872  51.450  1.00  0.00     0.155 HD
ENDROOT
BRANCH   7   9
HETATM    9  N2  UNL     1      24.132   2.723  50.319  1.00  0.00    -0.363 N 
HETATM   10  H15 UNL     1      24.265   2.459  49.307  1.00  0.00     0.162 HD
BRANCH   9  11
HETATM   11  C9  UNL     1      23.568   1.707  51.168  1.00  0.00     0.065 A 
HETATM   12  C10 UNL     1      24.441   1.193  52.135  1.00  0.00     0.051 A 
HETATM   13  C11 UNL     1      24.029   0.216  53.010  1.00  0.00     0.013 A 
HETATM   14 BR1  UNL     1      25.158  -0.532  54.352  1.00  0.00    -0.051 Br
HETATM   15  C12 UNL     1      22.726  -0.248  52.910  1.00  0.00     0.022 A 
HETATM   16  C13 UNL     1      21.863   0.246  51.971  1.00  0.00     0.040 A 
HETATM   17  C14 UNL     1      22.270   1.235  51.079  1.00  0.00     0.094 A 
BRANCH  17  18
HETATM   18  O2  UNL     1      21.559   1.845  50.083  1.00  0.00    -0.354 OA
HETATM   19  C15 UNL     1      21.206   1.146  48.929  1.00  0.00     0.210 C 
ENDBRANCH  17  18
ENDBRANCH   9  11
ENDBRANCH   7   9
BRANCH   1  20
HETATM   20  C2  UNL     1      22.714   5.108  49.594  1.00  0.00     0.205 C 
BRANCH  20  21
HETATM   21  O1  UNL     1      22.145   5.187  50.860  1.00  0.00    -0.392 OA
HETATM   22  C1  UNL     1      20.767   4.995  50.810  1.00  0.00     0.201 C 
ENDBRANCH  20  21
ENDBRANCH   1  20
TORSDOF 5
ENDMDL
MODEL 8
REMARK VINA RESULT:      -5.7      2.171      2.882
REMARK  5 active torsions:
REMARK  status: ('A' for Active; 'I' for Inactive)
REMARK    1  A    between atoms: O1_2  and  C2_3 
REMARK    2  A    between atoms: C2_3  and  C3_4 
REMARK    3  A    between atoms: C8_10  and  N2_11 
REMARK    4  A    between atoms: N2_11  and  C9_12 
REMARK    5  A    between atoms: C14_18  and  O2_19 
ROOT
HETATM    1  C3  UNL     1      23.213  -0.053  53.553  1.00  0.00    -0.019 C 
HETATM    2  C4  UNL     1      22.602  -1.035  54.208  1.00  0.00    -0.018 C 
HETATM    3  C5  UNL     1      21.177  -1.145  54.543  1.00  0.00     0.029 C 
HETATM    4  C6  UNL     1      20.257  -0.902  53.382  1.00  0.00     0.023 C 
HETATM    5  C7  UNL     1      20.446   0.380  52.663  1.00  0.00     0.116 C 
HETATM    6  N1  UNL     1      21.289   1.349  53.292  1.00  0.00    -0.398 N 
HETATM    7  C8  UNL     1      22.684   1.219  52.959  1.00  0.00     0.209 C 
HETATM    8  H13 UNL     1      21.087   1.539  54.283  1.00  0.00     0.155 HD
ENDROOT
BRANCH   7   9
HETATM    9  N2  UNL     1      22.770   1.136  51.504  1.00  0.00    -0.363 N 
HETATM   10  H15 UNL     1      22.618   0.210  51.023  1.00  0.00     0.162 HD
BRANCH   9  11
HETATM   11  C9  UNL     1      23.055   2.254  50.644  1.00  0.00     0.065 A 
HETATM   12  C10 UNL     1      24.415   2.544  50.482  1.00  0.00     0.051 A 
HETATM   13  C11 UNL     1      24.824   3.587  49.685  1.00  0.00     0.013 A 
HETATM   14 BR1  UNL     1      26.656   4.043  49.417  1.00  0.00    -0.051 Br
HETATM   15  C12 UNL     1      23.855   4.346  49.047  1.00  0.00     0.022 A 
HETATM   16  C13 UNL     1      22.524   4.074  49.196  1.00  0.00     0.040 A 
HETATM   17  C14 UNL     1      22.097   3.019  50.000  1.00  0.00     0.094 A 
BRANCH  17  18
HETATM   18  O2  UNL     1      20.824   2.599  50.269  1.00  0.00    -0.354 OA
HETATM   19  C15 UNL     1      19.829   3.513  50.615  1.00  0.00     0.210 C 
ENDBRANCH  17  18
ENDBRANCH   9  11
ENDBRANCH   7   9
BRANCH   1  20
HETATM   20  C2  UNL     1      24.691  -0.055  53.269  1.00  0.00     0.205 C 
BRANCH  20  21
HETATM   21  O1  UNL     1      25.246   1.186  53.559  1.00  0.00    -0.392 OA
HETATM   22  C1  UNL     1      26.599   1.227  53.231  1.00  0.00     0.201 C 
ENDBRANCH  20  21
ENDBRANCH   1  20
TORSDOF 5
ENDMDL
MODEL 9
REMARK VINA RESULT:      -5.7      5.749      8.386
REMARK  5 active torsions:
REMARK  status: ('A' for Active; 'I' for Inactive)
REMARK    1  A    between atoms: O1_2  and  C2_3 
REMARK    2  A    between atoms: C2_3  and  C3_4 
REMARK    3  A    between atoms: C8_10  and  N2_11 
REMARK    4  A    between atoms: N2_11  and  C9_12 
REMARK    5  A    between atoms: C14_18  and  O2_19 
ROOT
HETATM    1  C3  UNL     1      32.788   7.051  48.324  1.00  0.00    -0.019 C 
HETATM    2  C4  UNL     1      34.054   6.814  47.997  1.00  0.00    -0.018 C 
HETATM    3  C5  UNL     1      34.720   5.515  47.854  1.00  0.00     0.029 C 
HETATM    4  C6  UNL     1      33.971   4.537  46.997  1.00  0.00     0.023 C 
HETATM    5  C7  UNL     1      32.565   4.274  47.388  1.00  0.00     0.116 C 
HETATM    6  N1  UNL     1      32.155   4.767  48.667  1.00  0.00    -0.398 N 
HETATM    7  C8  UNL     1      31.657   6.119  48.644  1.00  0.00     0.209 C 
HETATM    8  H13 UNL     1      32.778   4.540  49.453  1.00  0.00     0.155 HD
ENDROOT
BRANCH   7   9
HETATM    9  N2  UNL     1      30.665   6.190  47.576  1.00  0.00    -0.363 N 
HETATM   10  H15 UNL     1      30.977   6.155  46.569  1.00  0.00     0.162 HD
BRANCH   9  11
HETATM   11  C9  UNL     1      29.247   6.308  47.792  1.00  0.00     0.065 A 
HETATM   12  C10 UNL     1      28.660   5.228  48.463  1.00  0.00     0.051 A 
HETATM   13  C11 UNL     1      27.312   5.214  48.734  1.00  0.00     0.013 A 
HETATM   14 BR1  UNL     1      26.441   3.781  49.642  1.00  0.00    -0.051 Br
HETATM   15  C12 UNL     1      26.549   6.297  48.325  1.00  0.00     0.022 A 
HETATM   16  C13 UNL     1      27.109   7.358  47.669  1.00  0.00     0.040 A 
HETATM   17  C14 UNL     1      28.474   7.383  47.390  1.00  0.00     0.094 A 
BRANCH  17  18
HETATM   18  O2  UNL     1      29.206   8.345  46.751  1.00  0.00    -0.354 OA
HETATM   19  C15 UNL     1      28.839   8.797  45.484  1.00  0.00     0.210 C 
ENDBRANCH  17  18
ENDBRANCH   9  11
ENDBRANCH   7   9
BRANCH   1  20
HETATM   20  C2  UNL     1      32.218   8.440  48.440  1.00  0.00     0.205 C 
BRANCH  20  21
HETATM   21  O1  UNL     1      31.340   8.521  49.515  1.00  0.00    -0.392 OA
HETATM   22  C1  UNL     1      30.722   9.767  49.574  1.00  0.00     0.201 C 
ENDBRANCH  20  21
ENDBRANCH   1  20
TORSDOF 5
ENDMDL
