MODEL 1
REMARK VINA RESULT:      -8.1      0.000      0.000
REMARK  7 active torsions:
REMARK  status: ('A' for Active; 'I' for Inactive)
REMARK    1  A    between atoms: C9_9  and  O1_10 
REMARK    2  A    between atoms: O1_10  and  C10_11 
REMARK    3  A    between atoms: C10_11  and  C11_12 
REMARK    4  A    between atoms: C11_12  and  O2_13 
REMARK    5  A    between atoms: C13_15  and  C14_16 
REMARK    6  A    between atoms: C14_16  and  C15_17 
REMARK    7  A    between atoms: C15_17  and  O3_18 
ROOT
HETATM    1  C1  UNL     1      22.443   3.535  47.551  1.00  0.00     0.013 C 
HETATM    2  C2  UNL     1      23.032   3.248  48.580  1.00  0.00    -0.105 C 
HETATM    3  C3  UNL     1      23.740   2.918  49.773  1.00  0.00     0.051 A 
HETATM    4  C4  UNL     1      25.131   3.258  49.774  1.00  0.00     0.050 A 
HETATM    5  C5  UNL     1      26.545   3.361  50.366  1.00  0.00     0.146 A 
HETATM    6  C6  UNL     1      25.404   2.934  50.709  1.00  0.00     0.264 A 
HETATM    7  C7  UNL     1      24.123   2.563  50.844  1.00  0.00     0.123 A 
HETATM    8  C8  UNL     1      22.817   2.315  50.668  1.00  0.00     0.052 A 
HETATM    9  C9  UNL     1      22.970   1.521  51.936  1.00  0.00     0.065 C 
HETATM   10  C13 UNL     1      23.381   0.949  52.997  1.00  0.00    -0.025 C 
HETATM   11  C17 UNL     1      24.773   1.003  53.440  1.00  0.00     0.022 C 
HETATM   12  C18 UNL     1      26.045   1.098  53.782  1.00  0.00     0.016 C 
HETATM   13  C19 UNL     1      26.945   0.585  54.823  1.00  0.00     0.192 C 
HETATM   14  N1  UNL     1      28.296   0.800  54.523  1.00  0.00    -0.278 NA
HETATM   15  C20 UNL     1      28.914   1.466  53.644  1.00  0.00     0.229 C 
HETATM   16  N2  UNL     1      28.093   2.182  52.669  1.00  0.00    -0.218 NA
HETATM   17  C21 UNL     1      26.830   1.957  52.837  1.00  0.00     0.237 C 
HETATM   18  N3  UNL     1      26.625   2.974  51.839  1.00  0.00    -0.015 N 
HETATM   19  H23 UNL     1      26.451   3.943  52.360  1.00  0.00     0.289 HD
ENDROOT
BRANCH   9  20
HETATM   20  O1  UNL     1      21.678   1.363  51.529  1.00  0.00    -0.352 OA
BRANCH  20  21
HETATM   21  C10 UNL     1      20.657   2.293  51.674  1.00  0.00     0.201 C 
BRANCH  21  22
HETATM   22  C11 UNL     1      19.350   1.588  51.988  1.00  0.00     0.193 C 
BRANCH  22  23
HETATM   23  O2  UNL     1      19.468   0.263  51.613  1.00  0.00    -0.394 OA
HETATM   24  C12 UNL     1      18.176  -0.274  51.427  1.00  0.00     0.201 C 
ENDBRANCH  22  23
ENDBRANCH  21  22
ENDBRANCH  20  21
ENDBRANCH   9  20
BRANCH  10  25
HETATM   25  C14 UNL     1      22.379   0.114  53.772  1.00  0.00     0.067 C 
BRANCH  25  26
HETATM   26  C15 UNL     1      23.062  -0.935  54.627  1.00  0.00     0.171 C 
BRANCH  26  27
HETATM   27  O3  UNL     1      22.053  -1.813  55.018  1.00  0.00    -0.396 OA
HETATM   28  C16 UNL     1      20.884  -1.638  54.292  1.00  0.00     0.201 C 
ENDBRANCH  26  27
ENDBRANCH  25  26
ENDBRANCH  10  25
TORSDOF 7
ENDMDL
MODEL 2
REMARK VINA RESULT:      -8.0      1.986      5.002
REMARK  7 active torsions:
REMARK  status: ('A' for Active; 'I' for Inactive)
REMARK    1  A    between atoms: C9_9  and  O1_10 
REMARK    2  A    between atoms: O1_10  and  C10_11 
REMARK    3  A    between atoms: C10_11  and  C11_12 
REMARK    4  A    between atoms: C11_12  and  O2_13 
REMARK    5  A    between atoms: C13_15  and  C14_16 
REMARK    6  A    between atoms: C14_16  and  C15_17 
REMARK    7  A    between atoms: C15_17  and  O3_18 
ROOT
HETATM    1  C1  UNL     1      19.676  -0.568  53.468  1.00  0.00     0.013 C 
HETATM    2  C2  UNL     1      20.872  -0.362  53.348  1.00  0.00    -0.105 C 
HETATM    3  C3  UNL     1      22.275  -0.132  53.226  1.00  0.00     0.051 A 
HETATM    4  C4  UNL     1      23.092  -0.806  54.190  1.00  0.00     0.050 A 
HETATM    5  C5  UNL     1      24.410  -1.214  54.865  1.00  0.00     0.146 A 
HETATM    6  C6  UNL     1      24.025  -0.493  53.899  1.00  0.00     0.264 A 
HETATM    7  C7  UNL     1      23.384   0.194  52.942  1.00  0.00     0.123 A 
HETATM    8  C8  UNL     1      22.472   0.745  52.127  1.00  0.00     0.052 A 
HETATM    9  C9  UNL     1      23.640   1.566  51.654  1.00  0.00     0.065 C 
HETATM   10  C13 UNL     1      24.781   2.094  51.449  1.00  0.00    -0.025 C 
HETATM   11  C17 UNL     1      25.974   1.728  52.209  1.00  0.00     0.022 C 
HETATM   12  C18 UNL     1      27.010   1.346  52.933  1.00  0.00     0.016 C 
HETATM   13  C19 UNL     1      28.428   1.693  53.093  1.00  0.00     0.192 C 
HETATM   14  N1  UNL     1      28.997   1.128  54.242  1.00  0.00    -0.278 NA
HETATM   15  C20 UNL     1      28.618   0.268  55.087  1.00  0.00     0.229 C 
HETATM   16  N2  UNL     1      27.281  -0.291  54.896  1.00  0.00    -0.218 NA
HETATM   17  C21 UNL     1      26.663   0.252  53.898  1.00  0.00     0.237 C 
HETATM   18  N3  UNL     1      25.654  -0.752  54.112  1.00  0.00    -0.015 N 
HETATM   19  H23 UNL     1      25.863  -1.607  53.430  1.00  0.00     0.289 HD
ENDROOT
BRANCH   9  20
HETATM   20  O1  UNL     1      22.547   2.010  50.970  1.00  0.00    -0.352 OA
BRANCH  20  21
HETATM   21  C10 UNL     1      21.992   1.416  49.844  1.00  0.00     0.201 C 
BRANCH  21  22
HETATM   22  C11 UNL     1      20.992   2.358  49.197  1.00  0.00     0.193 C 
BRANCH  22  23
HETATM   23  O2  UNL     1      21.591   2.940  48.095  1.00  0.00    -0.394 OA
HETATM   24  C12 UNL     1      22.527   2.033  47.554  1.00  0.00     0.201 C 
ENDBRANCH  22  23
ENDBRANCH  21  22
ENDBRANCH  20  21
ENDBRANCH   9  20
BRANCH  10  25
HETATM   25  C14 UNL     1      24.860   3.205  50.419  1.00  0.00     0.067 C 
BRANCH  25  26
HETATM   26  C15 UNL     1      26.230   3.281  49.775  1.00  0.00     0.171 C 
BRANCH  26  27
HETATM   27  O3  UNL     1      26.420   4.624  49.457  1.00  0.00    -0.396 OA
HETATM   28  C16 UNL     1      27.550   4.833  48.681  1.00  0.00     0.201 C 
ENDBRANCH  26  27
ENDBRANCH  25  26
ENDBRANCH  10  25
TORSDOF 7
ENDMDL
MODEL 3
REMARK VINA RESULT:      -7.8      2.935      5.658
REMARK  7 active torsions:
REMARK  status: ('A' for Active; 'I' for Inactive)
REMARK    1  A    between atoms: C9_9  and  O1_10 
REMARK    2  A    between atoms: O1_10  and  C10_11 
REMARK    3  A    between atoms: C10_11  and  C11_12 
REMARK    4  A    between atoms: C11_12  and  O2_13 
REMARK    5  A    between atoms: C13_15  and  C14_16 
REMARK    6  A    between atoms: C14_16  and  C15_17 
REMARK    7  A    between atoms: C15_17  and  O3_18 
ROOT
HETATM    1  C1  UNL     1      27.981   4.954  48.618  1.00  0.00     0.013 C 
HETATM    2  C2  UNL     1      26.957   4.478  49.078  1.00  0.00    -0.105 C 
HETATM    3  C3  UNL     1      25.747   3.938  49.608  1.00  0.00     0.051 A 
HETATM    4  C4  UNL     1      24.545   4.578  49.165  1.00  0.00     0.050 A 
HETATM    5  C5  UNL     1      23.027   4.798  49.082  1.00  0.00     0.146 A 
HETATM    6  C6  UNL     1      23.840   4.024  49.666  1.00  0.00     0.264 A 
HETATM    7  C7  UNL     1      24.880   3.337  50.160  1.00  0.00     0.123 A 
HETATM    8  C8  UNL     1      26.097   2.863  50.467  1.00  0.00     0.052 A 
HETATM    9  C9  UNL     1      25.343   2.082  51.509  1.00  0.00     0.065 C 
HETATM   10  C13 UNL     1      24.467   1.554  52.267  1.00  0.00    -0.025 C 
HETATM   11  C17 UNL     1      23.047   1.896  52.201  1.00  0.00     0.022 C 
HETATM   12  C18 UNL     1      21.782   2.251  52.082  1.00  0.00     0.016 C 
HETATM   13  C19 UNL     1      20.497   1.978  52.739  1.00  0.00     0.192 C 
HETATM   14  N1  UNL     1      19.492   2.875  52.355  1.00  0.00    -0.278 NA
HETATM   15  C20 UNL     1      19.392   3.764  51.462  1.00  0.00     0.229 C 
HETATM   16  N2  UNL     1      20.565   3.976  50.615  1.00  0.00    -0.218 NA
HETATM   17  C21 UNL     1      21.564   3.236  50.973  1.00  0.00     0.237 C 
HETATM   18  N3  UNL     1      22.210   3.716  49.779  1.00  0.00    -0.015 N 
HETATM   19  H23 UNL     1      22.039   2.973  48.969  1.00  0.00     0.289 HD
ENDROOT
BRANCH   9  20
HETATM   20  O1  UNL     1      26.664   1.786  51.676  1.00  0.00    -0.352 OA
BRANCH  20  21
HETATM   21  C10 UNL     1      27.527   2.387  52.583  1.00  0.00     0.201 C 
BRANCH  21  22
HETATM   22  C11 UNL     1      28.497   1.360  53.140  1.00  0.00     0.193 C 
BRANCH  22  23
HETATM   23  O2  UNL     1      28.444   1.414  54.520  1.00  0.00    -0.394 OA
HETATM   24  C12 UNL     1      28.304   0.102  55.022  1.00  0.00     0.201 C 
ENDBRANCH  22  23
ENDBRANCH  21  22
ENDBRANCH  20  21
ENDBRANCH   9  20
BRANCH  10  25
HETATM   25  C14 UNL     1      24.957   0.590  53.332  1.00  0.00     0.067 C 
BRANCH  25  26
HETATM   26  C15 UNL     1      24.155  -0.697  53.339  1.00  0.00     0.171 C 
BRANCH  26  27
HETATM   27  O3  UNL     1      23.563  -0.761  54.599  1.00  0.00    -0.396 OA
HETATM   28  C16 UNL     1      22.194  -0.972  54.534  1.00  0.00     0.201 C 
ENDBRANCH  26  27
ENDBRANCH  25  26
ENDBRANCH  10  25
TORSDOF 7
ENDMDL
MODEL 4
REMARK VINA RESULT:      -7.7      3.488      7.195
REMARK  7 active torsions:
REMARK  status: ('A' for Active; 'I' for Inactive)
REMARK    1  A    between atoms: C9_9  and  O1_10 
REMARK    2  A    between atoms: O1_10  and  C10_11 
REMARK    3  A    between atoms: C10_11  and  C11_12 
REMARK    4  A    between atoms: C11_12  and  O2_13 
REMARK    5  A    between atoms: C13_15  and  C14_16 
REMARK    6  A    between atoms: C14_16  and  C15_17 
REMARK    7  A    between atoms: C15_17  and  O3_18 
ROOT
HETATM    1  C1  UNL     1      26.373  -0.419  54.170  1.00  0.00     0.013 C 
HETATM    2  C2  UNL     1      25.198  -0.274  53.877  1.00  0.00    -0.105 C 
HETATM    3  C3  UNL     1      23.819  -0.122  53.547  1.00  0.00     0.051 A 
HETATM    4  C4  UNL     1      22.912  -0.911  54.325  1.00  0.00     0.050 A 
HETATM    5  C5  UNL     1      21.537  -1.437  54.763  1.00  0.00     0.146 A 
HETATM    6  C6  UNL     1      22.015  -0.631  53.913  1.00  0.00     0.264 A 
HETATM    7  C7  UNL     1      22.746   0.159  53.113  1.00  0.00     0.123 A 
HETATM    8  C8  UNL     1      23.732   0.819  52.487  1.00  0.00     0.052 A 
HETATM    9  C9  UNL     1      22.636   1.203  51.530  1.00  0.00     0.065 C 
HETATM   10  C13 UNL     1      21.538   1.373  50.909  1.00  0.00    -0.025 C 
HETATM   11  C17 UNL     1      20.284   0.749  51.328  1.00  0.00     0.022 C 
HETATM   12  C18 UNL     1      19.189   0.157  51.765  1.00  0.00     0.016 C 
HETATM   13  C19 UNL     1      17.782   0.013  51.367  1.00  0.00     0.192 C 
HETATM   14  N1  UNL     1      17.117  -0.991  52.083  1.00  0.00    -0.278 NA
HETATM   15  C20 UNL     1      17.401  -1.693  53.095  1.00  0.00     0.229 C 
HETATM   16  N2  UNL     1      18.718  -1.479  53.691  1.00  0.00    -0.218 NA
HETATM   17  C21 UNL     1      19.422  -0.622  53.025  1.00  0.00     0.237 C 
HETATM   18  N3  UNL     1      20.365  -0.712  54.109  1.00  0.00    -0.015 N 
HETATM   19  H23 UNL     1      20.157   0.117  54.821  1.00  0.00     0.289 HD
ENDROOT
BRANCH   9  20
HETATM   20  O1  UNL     1      23.790   1.743  51.042  1.00  0.00    -0.352 OA
BRANCH  20  21
HETATM   21  C10 UNL     1      24.484   2.815  51.588  1.00  0.00     0.201 C 
BRANCH  21  22
HETATM   22  C11 UNL     1      24.676   3.899  50.543  1.00  0.00     0.193 C 
BRANCH  22  23
HETATM   23  O2  UNL     1      25.321   3.344  49.452  1.00  0.00    -0.394 OA
HETATM   24  C12 UNL     1      26.670   3.758  49.463  1.00  0.00     0.201 C 
ENDBRANCH  22  23
ENDBRANCH  21  22
ENDBRANCH  20  21
ENDBRANCH   9  20
BRANCH  10  25
HETATM   25  C14 UNL     1      21.577   2.199  49.637  1.00  0.00     0.067 C 
BRANCH  25  26
HETATM   26  C15 UNL     1      21.655   1.325  48.400  1.00  0.00     0.171 C 
BRANCH  26  27
HETATM   27  O3  UNL     1      22.506   1.994  47.523  1.00  0.00    -0.396 OA
HETATM   28  C16 UNL     1      22.091   3.291  47.263  1.00  0.00     0.201 C 
ENDBRANCH  26  27
ENDBRANCH  25  26
ENDBRANCH  10  25
TORSDOF 7
ENDMDL
MODEL 5
REMARK VINA RESULT:      -7.5      3.115      5.425
REMARK  7 active torsions:
REMARK  status: ('A' for Active; 'I' for Inactive)
REMARK    1  A    between atoms: C9_9  and  O1_10 
REMARK    2  A    between atoms: O1_10  and  C10_11 
REMARK    3  A    between atoms: C10_11  and  C11_12 
REMARK    4  A    between atoms: C11_12  and  O2_13 
REMARK    5  A    between atoms: C13_15  and  C14_16 
REMARK    6  A    between atoms: C14_16  and  C15_17 
REMARK    7  A    between atoms: C15_17  and  O3_18 
ROOT
HETATM    1  C1  UNL     1      22.211   4.513  47.758  1.00  0.00     0.013 C 
HETATM    2  C2  UNL     1      22.421   3.688  48.631  1.00  0.00    -0.105 C 
HETATM    3  C3  UNL     1      22.645   2.718  49.654  1.00  0.00     0.051 A 
HETATM    4  C4  UNL     1      21.521   1.888  49.967  1.00  0.00     0.050 A 
HETATM    5  C5  UNL     1      20.771   0.770  50.707  1.00  0.00     0.146 A 
HETATM    6  C6  UNL     1      21.923   1.294  50.701  1.00  0.00     0.264 A 
HETATM    7  C7  UNL     1      23.049   1.998  50.511  1.00  0.00     0.123 A 
HETATM    8  C8  UNL     1      23.988   2.859  50.092  1.00  0.00     0.052 A 
HETATM    9  C9  UNL     1      24.746   2.351  51.288  1.00  0.00     0.065 C 
HETATM   10  C13 UNL     1      25.149   1.744  52.332  1.00  0.00    -0.025 C 
HETATM   11  C17 UNL     1      24.332   0.765  53.047  1.00  0.00     0.022 C 
HETATM   12  C18 UNL     1      23.540  -0.109  53.640  1.00  0.00     0.016 C 
HETATM   13  C19 UNL     1      23.543  -0.961  54.837  1.00  0.00     0.192 C 
HETATM   14  N1  UNL     1      22.280  -1.495  55.124  1.00  0.00    -0.278 NA
HETATM   15  C20 UNL     1      21.176  -1.540  54.508  1.00  0.00     0.229 C 
HETATM   16  N2  UNL     1      21.129  -0.884  53.203  1.00  0.00    -0.218 NA
HETATM   17  C21 UNL     1      22.242  -0.294  52.913  1.00  0.00     0.237 C 
HETATM   18  N3  UNL     1      21.664  -0.072  51.613  1.00  0.00    -0.015 N 
HETATM   19  H23 UNL     1      22.001  -0.891  50.938  1.00  0.00     0.289 HD
ENDROOT
BRANCH   9  20
HETATM   20  O1  UNL     1      25.521   3.315  50.714  1.00  0.00    -0.352 OA
BRANCH  20  21
HETATM   21  C10 UNL     1      26.346   3.149  49.609  1.00  0.00     0.201 C 
BRANCH  21  22
HETATM   22  C11 UNL     1      26.901   4.491  49.166  1.00  0.00     0.193 C 
BRANCH  22  23
HETATM   23  O2  UNL     1      26.130   5.490  49.732  1.00  0.00    -0.394 OA
HETATM   24  C12 UNL     1      25.556   6.261  48.700  1.00  0.00     0.201 C 
ENDBRANCH  22  23
ENDBRANCH  21  22
ENDBRANCH  20  21
ENDBRANCH   9  20
BRANCH  10  25
HETATM   25  C14 UNL     1      26.508   2.131  52.883  1.00  0.00     0.067 C 
BRANCH  25  26
HETATM   26  C15 UNL     1      27.369   0.916  53.165  1.00  0.00     0.171 C 
BRANCH  26  27
HETATM   27  O3  UNL     1      27.547   0.896  54.547  1.00  0.00    -0.396 OA
HETATM   28  C16 UNL     1      28.675   0.187  54.929  1.00  0.00     0.201 C 
ENDBRANCH  26  27
ENDBRANCH  25  26
ENDBRANCH  10  25
TORSDOF 7
ENDMDL
MODEL 6
REMARK VINA RESULT:      -7.3      3.167      5.857
REMARK  7 active torsions:
REMARK  status: ('A' for Active; 'I' for Inactive)
REMARK    1  A    between atoms: C9_9  and  O1_10 
REMARK    2  A    between atoms: O1_10  and  C10_11 
REMARK    3  A    between atoms: C10_11  and  C11_12 
REMARK    4  A    between atoms: C11_12  and  O2_13 
REMARK    5  A    between atoms: C13_15  and  C14_16 
REMARK    6  A    between atoms: C14_16  and  C15_17 
REMARK    7  A    between atoms: C15_17  and  O3_18 
ROOT
HETATM    1  C1  UNL     1      26.056   4.576  49.414  1.00  0.00     0.013 C 
HETATM    2  C2  UNL     1      25.132   3.824  49.675  1.00  0.00    -0.105 C 
HETATM    3  C3  UNL     1      24.039   2.956  49.967  1.00  0.00     0.051 A 
HETATM    4  C4  UNL     1      22.889   3.117  49.130  1.00  0.00     0.050 A 
HETATM    5  C5  UNL     1      21.470   2.808  48.628  1.00  0.00     0.146 A 
HETATM    6  C6  UNL     1      22.266   2.403  49.524  1.00  0.00     0.264 A 
HETATM    7  C7  UNL     1      23.268   2.147  50.378  1.00  0.00     0.123 A 
HETATM    8  C8  UNL     1      24.422   2.136  51.061  1.00  0.00     0.052 A 
HETATM    9  C9  UNL     1      23.662   1.237  51.998  1.00  0.00     0.065 C 
HETATM   10  C13 UNL     1      22.800   0.510  52.590  1.00  0.00    -0.025 C 
HETATM   11  C17 UNL     1      21.430   0.350  52.107  1.00  0.00     0.022 C 
HETATM   12  C18 UNL     1      20.211   0.249  51.612  1.00  0.00     0.016 C 
HETATM   13  C19 UNL     1      18.931  -0.383  51.960  1.00  0.00     0.192 C 
HETATM   14  N1  UNL     1      17.866   0.089  51.183  1.00  0.00    -0.278 NA
HETATM   15  C20 UNL     1      17.774   0.816  50.153  1.00  0.00     0.229 C 
HETATM   16  N2  UNL     1      19.026   1.337  49.607  1.00  0.00    -0.218 NA
HETATM   17  C21 UNL     1      20.047   1.009  50.330  1.00  0.00     0.237 C 
HETATM   18  N3  UNL     1      20.844   1.576  49.274  1.00  0.00    -0.015 N 
HETATM   19  H23 UNL     1      21.151   0.754  48.589  1.00  0.00     0.289 HD
ENDROOT
BRANCH   9  20
HETATM   20  O1  UNL     1      24.899   1.415  52.543  1.00  0.00    -0.352 OA
BRANCH  20  21
HETATM   21  C10 UNL     1      26.061   0.755  52.164  1.00  0.00     0.201 C 
BRANCH  21  22
HETATM   22  C11 UNL     1      27.256   1.341  52.894  1.00  0.00     0.193 C 
BRANCH  22  23
HETATM   23  O2  UNL     1      26.942   1.438  54.237  1.00  0.00    -0.394 OA
HETATM   24  C12 UNL     1      27.298   0.232  54.876  1.00  0.00     0.201 C 
ENDBRANCH  22  23
ENDBRANCH  21  22
ENDBRANCH  20  21
ENDBRANCH   9  20
BRANCH  10  25
HETATM   25  C14 UNL     1      23.217  -0.142  53.895  1.00  0.00     0.067 C 
BRANCH  25  26
HETATM   26  C15 UNL     1      22.114  -1.010  54.469  1.00  0.00     0.171 C 
BRANCH  26  27
HETATM   27  O3  UNL     1      22.668  -1.627  55.588  1.00  0.00    -0.396 OA
HETATM   28  C16 UNL     1      24.026  -1.381  55.714  1.00  0.00     0.201 C 
ENDBRANCH  26  27
ENDBRANCH  25  26
ENDBRANCH  10  25
TORSDOF 7
ENDMDL
MODEL 7
REMARK VINA RESULT:      -7.1      2.146      4.349
REMARK  7 active torsions:
REMARK  status: ('A' for Active; 'I' for Inactive)
REMARK    1  A    between atoms: C9_9  and  O1_10 
REMARK    2  A    between atoms: O1_10  and  C10_11 
REMARK    3  A    between atoms: C10_11  and  C11_12 
REMARK    4  A    between atoms: C11_12  and  O2_13 
REMARK    5  A    between atoms: C13_15  and  C14_16 
REMARK    6  A    between atoms: C14_16  and  C15_17 
REMARK    7  A    between atoms: C15_17  and  O3_18 
ROOT
HETATM    1  C1  UNL     1      27.592   4.739  48.574  1.00  0.00     0.013 C 
HETATM    2  C2  UNL     1      26.854   4.106  49.310  1.00  0.00    -0.105 C 
HETATM    3  C3  UNL     1      26.009   3.359  50.184  1.00  0.00     0.051 A 
HETATM    4  C4  UNL     1      26.651   2.823  51.346  1.00  0.00     0.050 A 
HETATM    5  C5  UNL     1      26.725   2.048  52.671  1.00  0.00     0.146 A 
HETATM    6  C6  UNL     1      25.860   2.349  51.797  1.00  0.00     0.264 A 
HETATM    7  C7  UNL     1      25.136   2.789  50.758  1.00  0.00     0.123 A 
HETATM    8  C8  UNL     1      24.704   3.361  49.624  1.00  0.00     0.052 A 
HETATM    9  C9  UNL     1      23.461   2.557  49.892  1.00  0.00     0.065 C 
HETATM   10  C13 UNL     1      22.557   1.796  50.365  1.00  0.00    -0.025 C 
HETATM   11  C17 UNL     1      22.741   1.003  51.579  1.00  0.00     0.022 C 
HETATM   12  C18 UNL     1      22.976   0.318  52.683  1.00  0.00     0.016 C 
HETATM   13  C19 UNL     1      22.302  -0.680  53.522  1.00  0.00     0.192 C 
HETATM   14  N1  UNL     1      23.164  -1.279  54.450  1.00  0.00    -0.278 NA
HETATM   15  C20 UNL     1      24.347  -1.052  54.835  1.00  0.00     0.229 C 
HETATM   16  N2  UNL     1      25.041   0.062  54.192  1.00  0.00    -0.218 NA
HETATM   17  C21 UNL     1      24.330   0.608  53.260  1.00  0.00     0.237 C 
HETATM   18  N3  UNL     1      25.364   1.607  53.201  1.00  0.00    -0.015 N 
HETATM   19  H23 UNL     1      25.058   2.464  53.842  1.00  0.00     0.289 HD
ENDROOT
BRANCH   9  20
HETATM   20  O1  UNL     1      23.261   3.207  48.709  1.00  0.00    -0.352 OA
BRANCH  20  21
HETATM   21  C10 UNL     1      23.015   4.565  48.555  1.00  0.00     0.201 C 
BRANCH  21  22
HETATM   22  C11 UNL     1      21.929   4.784  47.517  1.00  0.00     0.193 C 
BRANCH  22  23
HETATM   23  O2  UNL     1      21.839   3.648  46.734  1.00  0.00    -0.394 OA
HETATM   24  C12 UNL     1      21.804   4.033  45.377  1.00  0.00     0.201 C 
ENDBRANCH  22  23
ENDBRANCH  21  22
ENDBRANCH  20  21
ENDBRANCH   9  20
BRANCH  10  25
HETATM   25  C14 UNL     1      21.272   1.662  49.570  1.00  0.00     0.067 C 
BRANCH  25  26
HETATM   26  C15 UNL     1      20.066   2.121  50.367  1.00  0.00     0.171 C 
BRANCH  26  27
HETATM   27  O3  UNL     1      19.130   1.094  50.253  1.00  0.00    -0.396 OA
HETATM   28  C16 UNL     1      19.096   0.278  51.373  1.00  0.00     0.201 C 
ENDBRANCH  26  27
ENDBRANCH  25  26
ENDBRANCH  10  25
TORSDOF 7
ENDMDL
MODEL 8
REMARK VINA RESULT:      -7.0      3.132      5.295
REMARK  7 active torsions:
REMARK  status: ('A' for Active; 'I' for Inactive)
REMARK    1  A    between atoms: C9_9  and  O1_10 
REMARK    2  A    between atoms: O1_10  and  C10_11 
REMARK    3  A    between atoms: C10_11  and  C11_12 
REMARK    4  A    between atoms: C11_12  and  O2_13 
REMARK    5  A    between atoms: C13_15  and  C14_16 
REMARK    6  A    between atoms: C14_16  and  C15_17 
REMARK    7  A    between atoms: C15_17  and  O3_18 
ROOT
HETATM    1  C1  UNL     1      26.831   4.009  49.283  1.00  0.00     0.013 C 
HETATM    2  C2  UNL     1      26.021   3.510  50.047  1.00  0.00    -0.105 C 
HETATM    3  C3  UNL     1      25.088   2.909  50.944  1.00  0.00     0.051 A 
HETATM    4  C4  UNL     1      25.549   1.726  51.606  1.00  0.00     0.050 A 
HETATM    5  C5  UNL     1      25.444   0.526  52.560  1.00  0.00     0.146 A 
HETATM    6  C6  UNL     1      24.727   1.496  52.176  1.00  0.00     0.264 A 
HETATM    7  C7  UNL     1      24.169   2.586  51.629  1.00  0.00     0.123 A 
HETATM    8  C8  UNL     1      23.906   3.696  50.924  1.00  0.00     0.052 A 
HETATM    9  C9  UNL     1      22.501   3.468  51.411  1.00  0.00     0.065 C 
HETATM   10  C13 UNL     1      21.437   3.045  51.967  1.00  0.00    -0.025 C 
HETATM   11  C17 UNL     1      21.393   1.829  52.777  1.00  0.00     0.022 C 
HETATM   12  C18 UNL     1      21.428   0.724  53.497  1.00  0.00     0.016 C 
HETATM   13  C19 UNL     1      20.496  -0.139  54.235  1.00  0.00     0.192 C 
HETATM   14  N1  UNL     1      21.063  -1.369  54.591  1.00  0.00    -0.278 NA
HETATM   15  C20 UNL     1      22.233  -1.848  54.559  1.00  0.00     0.229 C 
HETATM   16  N2  UNL     1      23.279  -0.982  54.019  1.00  0.00    -0.218 NA
HETATM   17  C21 UNL     1      22.808   0.144  53.591  1.00  0.00     0.237 C 
HETATM   18  N3  UNL     1      24.183   0.533  53.418  1.00  0.00    -0.015 N 
HETATM   19  H23 UNL     1      24.504   1.091  54.326  1.00  0.00     0.289 HD
ENDROOT
BRANCH   9  20
HETATM   20  O1  UNL     1      22.461   4.562  50.598  1.00  0.00    -0.352 OA
BRANCH  20  21
HETATM   21  C10 UNL     1      22.947   5.827  50.906  1.00  0.00     0.201 C 
BRANCH  21  22
HETATM   22  C11 UNL     1      21.892   6.877  50.607  1.00  0.00     0.193 C 
BRANCH  22  23
HETATM   23  O2  UNL     1      22.482   7.892  49.877  1.00  0.00    -0.394 OA
HETATM   24  C12 UNL     1      23.782   8.117  50.379  1.00  0.00     0.201 C 
ENDBRANCH  22  23
ENDBRANCH  21  22
ENDBRANCH  20  21
ENDBRANCH   9  20
BRANCH  10  25
HETATM   25  C14 UNL     1      20.156   3.811  51.695  1.00  0.00     0.067 C 
BRANCH  25  26
HETATM   26  C15 UNL     1      18.942   2.903  51.710  1.00  0.00     0.171 C 
BRANCH  26  27
HETATM   27  O3  UNL     1      17.868   3.720  52.058  1.00  0.00    -0.396 OA
HETATM   28  C16 UNL     1      17.216   4.242  50.951  1.00  0.00     0.201 C 
ENDBRANCH  26  27
ENDBRANCH  25  26
ENDBRANCH  10  25
TORSDOF 7
ENDMDL
MODEL 9
REMARK VINA RESULT:      -6.6      2.751      5.246
REMARK  7 active torsions:
REMARK  status: ('A' for Active; 'I' for Inactive)
REMARK    1  A    between atoms: C9_9  and  O1_10 
REMARK    2  A    between atoms: O1_10  and  C10_11 
REMARK    3  A    between atoms: C10_11  and  C11_12 
REMARK    4  A    between atoms: C11_12  and  O2_13 
REMARK    5  A    between atoms: C13_15  and  C14_16 
REMARK    6  A    between atoms: C14_16  and  C15_17 
REMARK    7  A    between atoms: C15_17  and  O3_18 
ROOT
HETATM    1  C1  UNL     1      28.037   5.124  48.427  1.00  0.00     0.013 C 
HETATM    2  C2  UNL     1      27.164   4.530  49.037  1.00  0.00    -0.105 C 
HETATM    3  C3  UNL     1      26.159   3.824  49.762  1.00  0.00     0.051 A 
HETATM    4  C4  UNL     1      26.640   2.988  50.820  1.00  0.00     0.050 A 
HETATM    5  C5  UNL     1      26.512   2.004  51.993  1.00  0.00     0.146 A 
HETATM    6  C6  UNL     1      25.756   2.607  51.177  1.00  0.00     0.264 A 
HETATM    7  C7  UNL     1      25.171   3.344  50.222  1.00  0.00     0.123 A 
HETATM    8  C8  UNL     1      24.901   4.169  49.200  1.00  0.00     0.052 A 
HETATM    9  C9  UNL     1      23.519   3.586  49.315  1.00  0.00     0.065 C 
HETATM   10  C13 UNL     1      22.470   2.944  49.642  1.00  0.00    -0.025 C 
HETATM   11  C17 UNL     1      22.452   1.939  50.704  1.00  0.00     0.022 C 
HETATM   12  C18 UNL     1      22.509   1.047  51.675  1.00  0.00     0.016 C 
HETATM   13  C19 UNL     1      21.625   0.071  52.325  1.00  0.00     0.192 C 
HETATM   14  N1  UNL     1      22.321  -0.828  53.143  1.00  0.00    -0.278 NA
HETATM   15  C20 UNL     1      23.508  -0.899  53.572  1.00  0.00     0.229 C 
HETATM   16  N2  UNL     1      24.425   0.152  53.136  1.00  0.00    -0.218 NA
HETATM   17  C21 UNL     1      23.867   0.972  52.305  1.00  0.00     0.237 C 
HETATM   18  N3  UNL     1      25.072   1.749  52.428  1.00  0.00    -0.015 N 
HETATM   19  H23 UNL     1      24.906   2.530  53.204  1.00  0.00     0.289 HD
ENDROOT
BRANCH   9  20
HETATM   20  O1  UNL     1      23.494   4.450  48.260  1.00  0.00    -0.352 OA
BRANCH  20  21
HETATM   21  C10 UNL     1      23.479   5.836  48.340  1.00  0.00     0.201 C 
BRANCH  21  22
HETATM   22  C11 UNL     1      22.685   6.417  47.183  1.00  0.00     0.193 C 
BRANCH  22  23
HETATM   23  O2  UNL     1      22.336   5.385  46.331  1.00  0.00    -0.394 OA
HETATM   24  C12 UNL     1      21.007   5.581  45.900  1.00  0.00     0.201 C 
ENDBRANCH  22  23
ENDBRANCH  21  22
ENDBRANCH  20  21
ENDBRANCH   9  20
BRANCH  10  25
HETATM   25  C14 UNL     1      21.216   3.194  48.825  1.00  0.00     0.067 C 
BRANCH  25  26
HETATM   26  C15 UNL     1      20.035   2.401  49.349  1.00  0.00     0.171 C 
BRANCH  26  27
HETATM   27  O3  UNL     1      18.917   3.202  49.121  1.00  0.00    -0.396 OA
HETATM   28  C16 UNL     1      19.013   4.439  49.740  1.00  0.00     0.201 C 
ENDBRANCH  26  27
ENDBRANCH  25  26
ENDBRANCH  10  25
TORSDOF 7
ENDMDL
