MODEL 1
REMARK VINA RESULT:      -8.7      0.000      0.000
REMARK  4 active torsions:
REMARK  status: ('A' for Active; 'I' for Inactive)
REMARK    1  A    between atoms: O1_1  and  C1_2 
REMARK    2  A    between atoms: C3_5  and  N1_6 
REMARK    3  A    between atoms: C4_8  and  C5_9 
REMARK    4  A    between atoms: C12_17  and  C13_18 
ROOT
HETATM    1  N1  UNL     1      27.028   1.277  52.493  1.00  0.00    -0.236 N 
HETATM    2  N2  UNL     1      27.169   2.208  51.479  1.00  0.00    -0.173 NA
HETATM    3  C4  UNL     1      26.064   2.902  51.350  1.00  0.00     0.067 C 
HETATM    4  C11 UNL     1      25.061   2.434  52.343  1.00  0.00     0.094 C 
HETATM    5  C12 UNL     1      25.937   1.704  53.324  1.00  0.00     0.151 C 
ENDROOT
BRANCH   1   6
HETATM    6  C3  UNL     1      27.737   0.077  52.801  1.00  0.00     0.192 A 
HETATM    7  S1  UNL     1      29.351   0.384  53.754  1.00  0.00    -0.058 SA
HETATM    8  C2  UNL     1      29.712  -1.382  53.817  1.00  0.00     0.111 A 
HETATM    9  C1  UNL     1      28.589  -1.962  53.125  1.00  0.00     0.171 A 
HETATM   10  N3  UNL     1      27.736  -1.049  52.709  1.00  0.00    -0.198 NA
BRANCH   9  11
HETATM   11  O1  UNL     1      28.264  -3.304  52.828  1.00  0.00    -0.344 OA
HETATM   12  H1  UNL     1      29.030  -3.972  52.939  1.00  0.00     0.219 HD
ENDBRANCH   9  11
ENDBRANCH   1   6
BRANCH   5  13
HETATM   13  C13 UNL     1      25.246   0.585  53.995  1.00  0.00    -0.032 C 
HETATM   14  C14 UNL     1      25.616  -0.097  55.091  1.00  0.00     0.010 C 
HETATM   15  C15 UNL     1      24.735  -1.168  55.544  1.00  0.00     0.014 C 
HETATM   16  C16 UNL     1      23.542  -1.268  55.017  1.00  0.00    -0.014 C 
HETATM   17  C17 UNL     1      23.345  -0.857  53.823  1.00  0.00    -0.013 C 
HETATM   18  C18 UNL     1      23.994   0.194  53.355  1.00  0.00     0.022 C 
ENDBRANCH   5  13
BRANCH   3  19
HETATM   19  C5  UNL     1      25.860   3.965  50.381  1.00  0.00    -0.010 A 
HETATM   20  C6  UNL     1      24.647   4.603  50.230  1.00  0.00     0.016 A 
HETATM   21  C7  UNL     1      24.466   5.612  49.306  1.00  0.00     0.043 A 
HETATM   22  C8  UNL     1      25.511   6.011  48.498  1.00  0.00     0.116 A 
HETATM   23  F1  UNL     1      25.277   7.011  47.603  1.00  0.00    -0.206 F 
HETATM   24  C9  UNL     1      26.741   5.382  48.632  1.00  0.00     0.043 A 
HETATM   25  C10 UNL     1      26.889   4.381  49.563  1.00  0.00     0.016 A 
ENDBRANCH   3  19
TORSDOF 4
ENDMDL
MODEL 2
REMARK VINA RESULT:      -8.5      2.161      3.735
REMARK  4 active torsions:
REMARK  status: ('A' for Active; 'I' for Inactive)
REMARK    1  A    between atoms: O1_1  and  C1_2 
REMARK    2  A    between atoms: C3_5  and  N1_6 
REMARK    3  A    between atoms: C4_8  and  C5_9 
REMARK    4  A    between atoms: C12_17  and  C13_18 
ROOT
HETATM    1  N1  UNL     1      25.077   0.867  52.358  1.00  0.00    -0.236 N 
HETATM    2  N2  UNL     1      24.440   1.911  51.711  1.00  0.00    -0.173 NA
HETATM    3  C4  UNL     1      25.296   2.566  50.964  1.00  0.00     0.067 C 
HETATM    4  C11 UNL     1      26.642   1.945  51.085  1.00  0.00     0.094 C 
HETATM    5  C12 UNL     1      26.293   0.592  51.643  1.00  0.00     0.151 C 
ENDROOT
BRANCH   1   6
HETATM    6  C3  UNL     1      24.737   0.101  53.514  1.00  0.00     0.192 A 
HETATM    7  S1  UNL     1      22.943  -0.523  53.498  1.00  0.00    -0.058 SA
HETATM    8  C2  UNL     1      23.156  -1.339  55.092  1.00  0.00     0.111 A 
HETATM    9  C1  UNL     1      24.527  -1.041  55.421  1.00  0.00     0.171 A 
HETATM   10  N3  UNL     1      25.115  -0.315  54.494  1.00  0.00    -0.198 NA
BRANCH   9  11
HETATM   11  O1  UNL     1      25.317  -1.388  56.539  1.00  0.00    -0.344 OA
HETATM   12  H1  UNL     1      24.861  -1.274  57.447  1.00  0.00     0.219 HD
ENDBRANCH   9  11
ENDBRANCH   1   6
BRANCH   5  13
HETATM   13  C13 UNL     1      27.355   0.029  52.500  1.00  0.00    -0.032 C 
HETATM   14  C14 UNL     1      27.707  -1.256  52.670  1.00  0.00     0.010 C 
HETATM   15  C15 UNL     1      28.807  -1.535  53.587  1.00  0.00     0.014 C 
HETATM   16  C16 UNL     1      29.536  -0.539  54.017  1.00  0.00    -0.014 C 
HETATM   17  C17 UNL     1      29.018   0.626  54.113  1.00  0.00    -0.013 C 
HETATM   18  C18 UNL     1      28.106   1.032  53.248  1.00  0.00     0.022 C 
ENDBRANCH   5  13
BRANCH   3  19
HETATM   19  C5  UNL     1      24.969   3.720  50.146  1.00  0.00    -0.010 A 
HETATM   20  C6  UNL     1      25.926   4.616  49.718  1.00  0.00     0.016 A 
HETATM   21  C7  UNL     1      25.603   5.709  48.941  1.00  0.00     0.043 A 
HETATM   22  C8  UNL     1      24.294   5.936  48.569  1.00  0.00     0.116 A 
HETATM   23  F1  UNL     1      24.030   7.031  47.801  1.00  0.00    -0.206 F 
HETATM   24  C9  UNL     1      23.313   5.048  48.989  1.00  0.00     0.043 A 
HETATM   25  C10 UNL     1      23.668   3.968  49.761  1.00  0.00     0.016 A 
ENDBRANCH   3  19
TORSDOF 4
ENDMDL
MODEL 3
REMARK VINA RESULT:      -8.4      1.808      2.705
REMARK  4 active torsions:
REMARK  status: ('A' for Active; 'I' for Inactive)
REMARK    1  A    between atoms: O1_1  and  C1_2 
REMARK    2  A    between atoms: C3_5  and  N1_6 
REMARK    3  A    between atoms: C4_8  and  C5_9 
REMARK    4  A    between atoms: C12_17  and  C13_18 
ROOT
HETATM    1  N1  UNL     1      26.159   2.266  51.447  1.00  0.00    -0.236 N 
HETATM    2  N2  UNL     1      26.904   3.151  50.689  1.00  0.00    -0.173 NA
HETATM    3  C4  UNL     1      26.112   4.008  50.091  1.00  0.00     0.067 C 
HETATM    4  C11 UNL     1      24.698   3.715  50.447  1.00  0.00     0.094 C 
HETATM    5  C12 UNL     1      24.875   2.869  51.678  1.00  0.00     0.151 C 
ENDROOT
BRANCH   1   6
HETATM    6  C3  UNL     1      26.450   0.973  51.978  1.00  0.00     0.192 A 
HETATM    7  S1  UNL     1      27.025   1.019  53.788  1.00  0.00    -0.058 SA
HETATM    8  C2  UNL     1      27.206  -0.775  53.831  1.00  0.00     0.111 A 
HETATM    9  C1  UNL     1      26.816  -1.167  52.501  1.00  0.00     0.171 A 
HETATM   10  N3  UNL     1      26.481  -0.134  51.756  1.00  0.00    -0.198 NA
BRANCH   9  11
HETATM   11  O1  UNL     1      26.737  -2.435  51.884  1.00  0.00    -0.344 OA
HETATM   12  H1  UNL     1      26.754  -3.231  52.525  1.00  0.00     0.219 HD
ENDBRANCH   9  11
ENDBRANCH   1   6
BRANCH   5  13
HETATM   13  C13 UNL     1      23.794   1.879  51.859  1.00  0.00    -0.032 C 
HETATM   14  C14 UNL     1      23.478   1.168  52.954  1.00  0.00     0.010 C 
HETATM   15  C15 UNL     1      22.347   0.251  52.855  1.00  0.00     0.014 C 
HETATM   16  C16 UNL     1      21.567   0.324  51.809  1.00  0.00    -0.014 C 
HETATM   17  C17 UNL     1      22.041   0.739  50.697  1.00  0.00    -0.013 C 
HETATM   18  C18 UNL     1      22.977   1.671  50.668  1.00  0.00     0.022 C 
ENDBRANCH   5  13
BRANCH   3  19
HETATM   19  C5  UNL     1      26.557   5.079  49.216  1.00  0.00    -0.010 A 
HETATM   20  C6  UNL     1      27.843   5.145  48.725  1.00  0.00     0.016 A 
HETATM   21  C7  UNL     1      28.254   6.167  47.895  1.00  0.00     0.043 A 
HETATM   22  C8  UNL     1      27.373   7.165  47.531  1.00  0.00     0.116 A 
HETATM   23  F1  UNL     1      27.830   8.151  46.710  1.00  0.00    -0.206 F 
HETATM   24  C9  UNL     1      26.072   7.120  48.014  1.00  0.00     0.043 A 
HETATM   25  C10 UNL     1      25.694   6.087  48.839  1.00  0.00     0.016 A 
ENDBRANCH   3  19
TORSDOF 4
ENDMDL
MODEL 4
REMARK VINA RESULT:      -8.3      7.033     10.030
REMARK  4 active torsions:
REMARK  status: ('A' for Active; 'I' for Inactive)
REMARK    1  A    between atoms: O1_1  and  C1_2 
REMARK    2  A    between atoms: C3_5  and  N1_6 
REMARK    3  A    between atoms: C4_8  and  C5_9 
REMARK    4  A    between atoms: C12_17  and  C13_18 
ROOT
HETATM    1  N1  UNL     1      31.977   6.494  48.120  1.00  0.00    -0.236 N 
HETATM    2  N2  UNL     1      30.685   6.839  48.475  1.00  0.00    -0.173 NA
HETATM    3  C4  UNL     1      29.853   5.888  48.122  1.00  0.00     0.067 C 
HETATM    4  C11 UNL     1      30.605   4.785  47.467  1.00  0.00     0.094 C 
HETATM    5  C12 UNL     1      32.008   5.071  47.928  1.00  0.00     0.151 C 
ENDROOT
BRANCH   1   6
HETATM    6  C3  UNL     1      33.162   7.268  47.935  1.00  0.00     0.192 A 
HETATM    7  S1  UNL     1      33.036   8.498  46.493  1.00  0.00    -0.058 SA
HETATM    8  C2  UNL     1      34.713   9.096  46.786  1.00  0.00     0.111 A 
HETATM    9  C1  UNL     1      35.140   8.305  47.911  1.00  0.00     0.171 A 
HETATM   10  N3  UNL     1      34.208   7.466  48.313  1.00  0.00    -0.198 NA
BRANCH   9  11
HETATM   11  O1  UNL     1      36.355   8.281  48.631  1.00  0.00    -0.344 OA
HETATM   12  H1  UNL     1      37.051   7.616  48.288  1.00  0.00     0.219 HD
ENDBRANCH   9  11
ENDBRANCH   1   6
BRANCH   5  13
HETATM   13  C13 UNL     1      33.034   4.638  46.958  1.00  0.00    -0.032 C 
HETATM   14  C14 UNL     1      33.098   4.878  45.638  1.00  0.00     0.010 C 
HETATM   15  C15 UNL     1      34.236   4.325  44.910  1.00  0.00     0.014 C 
HETATM   16  C16 UNL     1      35.236   3.829  45.589  1.00  0.00    -0.014 C 
HETATM   17  C17 UNL     1      35.027   3.333  46.748  1.00  0.00    -0.013 C 
HETATM   18  C18 UNL     1      34.108   3.846  47.546  1.00  0.00     0.022 C 
ENDBRANCH   5  13
BRANCH   3  19
HETATM   19  C5  UNL     1      28.418   5.918  48.342  1.00  0.00    -0.010 A 
HETATM   20  C6  UNL     1      27.662   7.051  48.132  1.00  0.00     0.016 A 
HETATM   21  C7  UNL     1      26.299   7.066  48.345  1.00  0.00     0.043 A 
HETATM   22  C8  UNL     1      25.650   5.930  48.781  1.00  0.00     0.116 A 
HETATM   23  F1  UNL     1      24.303   6.000  48.976  1.00  0.00    -0.206 F 
HETATM   24  C9  UNL     1      26.391   4.776  49.000  1.00  0.00     0.043 A 
HETATM   25  C10 UNL     1      27.748   4.794  48.778  1.00  0.00     0.016 A 
ENDBRANCH   3  19
TORSDOF 4
ENDMDL
MODEL 5
REMARK VINA RESULT:      -8.3      4.428      6.781
REMARK  4 active torsions:
REMARK  status: ('A' for Active; 'I' for Inactive)
REMARK    1  A    between atoms: O1_1  and  C1_2 
REMARK    2  A    between atoms: C3_5  and  N1_6 
REMARK    3  A    between atoms: C4_8  and  C5_9 
REMARK    4  A    between atoms: C12_17  and  C13_18 
ROOT
HETATM    1  N1  UNL     1      24.513   2.165  51.521  1.00  0.00    -0.236 N 
HETATM    2  N2  UNL     1      25.849   1.947  51.809  1.00  0.00    -0.173 NA
HETATM    3  C4  UNL     1      25.993   0.800  52.429  1.00  0.00     0.067 C 
HETATM    4  C11 UNL     1      24.665   0.152  52.596  1.00  0.00     0.094 C 
HETATM    5  C12 UNL     1      23.845   0.894  51.577  1.00  0.00     0.151 C 
ENDROOT
BRANCH   1   6
HETATM    6  C3  UNL     1      23.778   3.348  51.210  1.00  0.00     0.192 A 
HETATM    7  S1  UNL     1      23.470   3.570  49.349  1.00  0.00    -0.058 SA
HETATM    8  C2  UNL     1      22.575   5.111  49.626  1.00  0.00     0.111 A 
HETATM    9  C1  UNL     1      22.624   5.254  51.059  1.00  0.00     0.171 A 
HETATM   10  N3  UNL     1      23.271   4.263  51.636  1.00  0.00    -0.198 NA
BRANCH   9  11
HETATM   11  O1  UNL     1      22.110   6.250  51.918  1.00  0.00    -0.344 OA
HETATM   12  H1  UNL     1      22.723   7.055  52.065  1.00  0.00     0.219 HD
ENDBRANCH   9  11
ENDBRANCH   1   6
BRANCH   5  13
HETATM   13  C13 UNL     1      22.421   1.003  51.950  1.00  0.00    -0.032 C 
HETATM   14  C14 UNL     1      21.885   1.350  53.132  1.00  0.00     0.010 C 
HETATM   15  C15 UNL     1      20.429   1.377  53.226  1.00  0.00     0.014 C 
HETATM   16  C16 UNL     1      19.725   1.290  52.128  1.00  0.00    -0.014 C 
HETATM   17  C17 UNL     1      20.203   0.663  51.122  1.00  0.00    -0.013 C 
HETATM   18  C18 UNL     1      21.498   0.685  50.866  1.00  0.00     0.022 C 
ENDBRANCH   5  13
BRANCH   3  19
HETATM   19  C5  UNL     1      27.262   0.254  52.878  1.00  0.00    -0.010 A 
HETATM   20  C6  UNL     1      27.547  -1.094  52.821  1.00  0.00     0.016 A 
HETATM   21  C7  UNL     1      28.756  -1.600  53.252  1.00  0.00     0.043 A 
HETATM   22  C8  UNL     1      29.723  -0.757  53.759  1.00  0.00     0.116 A 
HETATM   23  F1  UNL     1      30.898  -1.309  54.171  1.00  0.00    -0.206 F 
HETATM   24  C9  UNL     1      29.457   0.604  53.828  1.00  0.00     0.043 A 
HETATM   25  C10 UNL     1      28.243   1.077  53.390  1.00  0.00     0.016 A 
ENDBRANCH   3  19
TORSDOF 4
ENDMDL
MODEL 6
REMARK VINA RESULT:      -8.2      4.364      7.275
REMARK  4 active torsions:
REMARK  status: ('A' for Active; 'I' for Inactive)
REMARK    1  A    between atoms: O1_1  and  C1_2 
REMARK    2  A    between atoms: C3_5  and  N1_6 
REMARK    3  A    between atoms: C4_8  and  C5_9 
REMARK    4  A    between atoms: C12_17  and  C13_18 
ROOT
HETATM    1  N1  UNL     1      23.921   2.053  52.272  1.00  0.00    -0.236 N 
HETATM    2  N2  UNL     1      24.842   1.283  52.961  1.00  0.00    -0.173 NA
HETATM    3  C4  UNL     1      26.003   1.321  52.353  1.00  0.00     0.067 C 
HETATM    4  C11 UNL     1      25.905   2.179  51.142  1.00  0.00     0.094 C 
HETATM    5  C12 UNL     1      24.656   2.962  51.438  1.00  0.00     0.151 C 
ENDROOT
BRANCH   1   6
HETATM    6  C3  UNL     1      22.494   2.072  52.271  1.00  0.00     0.192 A 
HETATM    7  S1  UNL     1      21.721   0.345  52.110  1.00  0.00    -0.058 SA
HETATM    8  C2  UNL     1      20.052   1.027  52.170  1.00  0.00     0.111 A 
HETATM    9  C1  UNL     1      20.291   2.441  52.301  1.00  0.00     0.171 A 
HETATM   10  N3  UNL     1      21.576   2.729  52.330  1.00  0.00    -0.198 NA
BRANCH   9  11
HETATM   11  O1  UNL     1      19.404   3.535  52.400  1.00  0.00    -0.344 OA
HETATM   12  H1  UNL     1      18.834   3.709  51.569  1.00  0.00     0.219 HD
ENDBRANCH   9  11
ENDBRANCH   1   6
BRANCH   5  13
HETATM   13  C13 UNL     1      23.919   3.355  50.219  1.00  0.00    -0.032 C 
HETATM   14  C14 UNL     1      23.409   2.571  49.255  1.00  0.00     0.010 C 
HETATM   15  C15 UNL     1      22.720   3.230  48.150  1.00  0.00     0.014 C 
HETATM   16  C16 UNL     1      22.435   4.501  48.254  1.00  0.00    -0.014 C 
HETATM   17  C17 UNL     1      23.174   5.256  48.973  1.00  0.00    -0.013 C 
HETATM   18  C18 UNL     1      23.740   4.796  50.075  1.00  0.00     0.022 C 
ENDBRANCH   5  13
BRANCH   3  19
HETATM   19  C5  UNL     1      27.197   0.627  52.801  1.00  0.00    -0.010 A 
HETATM   20  C6  UNL     1      28.303   1.296  53.281  1.00  0.00     0.016 A 
HETATM   21  C7  UNL     1      29.432   0.624  53.704  1.00  0.00     0.043 A 
HETATM   22  C8  UNL     1      29.482  -0.753  53.655  1.00  0.00     0.116 A 
HETATM   23  F1  UNL     1      30.622  -1.365  54.084  1.00  0.00    -0.206 F 
HETATM   24  C9  UNL     1      28.381  -1.448  53.174  1.00  0.00     0.043 A 
HETATM   25  C10 UNL     1      27.271  -0.750  52.761  1.00  0.00     0.016 A 
ENDBRANCH   3  19
TORSDOF 4
ENDMDL
MODEL 7
REMARK VINA RESULT:      -8.2      4.377      7.017
REMARK  4 active torsions:
REMARK  status: ('A' for Active; 'I' for Inactive)
REMARK    1  A    between atoms: O1_1  and  C1_2 
REMARK    2  A    between atoms: C3_5  and  N1_6 
REMARK    3  A    between atoms: C4_8  and  C5_9 
REMARK    4  A    between atoms: C12_17  and  C13_18 
ROOT
HETATM    1  N1  UNL     1      23.408   0.754  53.019  1.00  0.00    -0.236 N 
HETATM    2  N2  UNL     1      24.495  -0.014  53.395  1.00  0.00    -0.173 NA
HETATM    3  C4  UNL     1      25.610   0.595  53.067  1.00  0.00     0.067 C 
HETATM    4  C11 UNL     1      25.296   1.891  52.409  1.00  0.00     0.094 C 
HETATM    5  C12 UNL     1      23.871   2.102  52.840  1.00  0.00     0.151 C 
ENDROOT
BRANCH   1   6
HETATM    6  C3  UNL     1      22.033   0.434  52.804  1.00  0.00     0.192 A 
HETATM    7  S1  UNL     1      21.150  -0.168  54.374  1.00  0.00    -0.058 SA
HETATM    8  C2  UNL     1      19.596  -0.379  53.483  1.00  0.00     0.111 A 
HETATM    9  C1  UNL     1      19.939   0.026  52.144  1.00  0.00     0.171 A 
HETATM   10  N3  UNL     1      21.201   0.388  52.041  1.00  0.00    -0.198 NA
BRANCH   9  11
HETATM   11  O1  UNL     1      19.171   0.094  50.961  1.00  0.00    -0.344 OA
HETATM   12  H1  UNL     1      19.154  -0.763  50.404  1.00  0.00     0.219 HD
ENDBRANCH   9  11
ENDBRANCH   1   6
BRANCH   5  13
HETATM   13  C13 UNL     1      23.076   2.863  51.855  1.00  0.00    -0.032 C 
HETATM   14  C14 UNL     1      22.099   3.758  52.073  1.00  0.00     0.010 C 
HETATM   15  C15 UNL     1      21.475   4.368  50.903  1.00  0.00     0.014 C 
HETATM   16  C16 UNL     1      22.030   4.198  49.732  1.00  0.00    -0.014 C 
HETATM   17  C17 UNL     1      22.714   3.141  49.507  1.00  0.00    -0.013 C 
HETATM   18  C18 UNL     1      23.427   2.581  50.467  1.00  0.00     0.022 C 
ENDBRANCH   5  13
BRANCH   3  19
HETATM   19  C5  UNL     1      26.943   0.074  53.314  1.00  0.00    -0.010 A 
HETATM   20  C6  UNL     1      27.908   0.802  53.977  1.00  0.00     0.016 A 
HETATM   21  C7  UNL     1      29.171   0.296  54.205  1.00  0.00     0.043 A 
HETATM   22  C8  UNL     1      29.504  -0.969  53.767  1.00  0.00     0.116 A 
HETATM   23  F1  UNL     1      30.766  -1.419  54.018  1.00  0.00    -0.206 F 
HETATM   24  C9  UNL     1      28.548  -1.720  53.096  1.00  0.00     0.043 A 
HETATM   25  C10 UNL     1      27.299  -1.188  52.886  1.00  0.00     0.016 A 
ENDBRANCH   3  19
TORSDOF 4
ENDMDL
MODEL 8
REMARK VINA RESULT:      -8.2      4.527      6.832
REMARK  4 active torsions:
REMARK  status: ('A' for Active; 'I' for Inactive)
REMARK    1  A    between atoms: O1_1  and  C1_2 
REMARK    2  A    between atoms: C3_5  and  N1_6 
REMARK    3  A    between atoms: C4_8  and  C5_9 
REMARK    4  A    between atoms: C12_17  and  C13_18 
ROOT
HETATM    1  N1  UNL     1      23.363   2.339  51.842  1.00  0.00    -0.236 N 
HETATM    2  N2  UNL     1      22.041   2.010  51.602  1.00  0.00    -0.173 NA
HETATM    3  C4  UNL     1      21.709   0.947  52.295  1.00  0.00     0.067 C 
HETATM    4  C11 UNL     1      22.879   0.482  53.087  1.00  0.00     0.094 C 
HETATM    5  C12 UNL     1      23.748   1.709  53.075  1.00  0.00     0.151 C 
ENDROOT
BRANCH   1   6
HETATM    6  C3  UNL     1      24.304   3.131  51.118  1.00  0.00     0.192 A 
HETATM    7  S1  UNL     1      23.881   4.982  51.117  1.00  0.00    -0.058 SA
HETATM    8  C2  UNL     1      25.335   5.368  50.121  1.00  0.00     0.111 A 
HETATM    9  C1  UNL     1      25.938   4.075  49.924  1.00  0.00     0.171 A 
HETATM   10  N3  UNL     1      25.255   3.113  50.507  1.00  0.00    -0.198 NA
BRANCH   9  11
HETATM   11  O1  UNL     1      27.103   3.682  49.230  1.00  0.00    -0.344 OA
HETATM   12  H1  UNL     1      27.955   3.648  49.794  1.00  0.00     0.219 HD
ENDBRANCH   9  11
ENDBRANCH   1   6
BRANCH   5  13
HETATM   13  C13 UNL     1      25.190   1.396  53.141  1.00  0.00    -0.032 C 
HETATM   14  C14 UNL     1      26.174   2.084  53.743  1.00  0.00     0.010 C 
HETATM   15  C15 UNL     1      27.526   1.540  53.651  1.00  0.00     0.014 C 
HETATM   16  C16 UNL     1      27.686   0.325  53.198  1.00  0.00    -0.014 C 
HETATM   17  C17 UNL     1      26.839  -0.156  52.370  1.00  0.00    -0.013 C 
HETATM   18  C18 UNL     1      25.561   0.166  52.449  1.00  0.00     0.022 C 
ENDBRANCH   5  13
BRANCH   3  19
HETATM   19  C5  UNL     1      20.397   0.326  52.284  1.00  0.00    -0.010 A 
HETATM   20  C6  UNL     1      19.503   0.507  51.250  1.00  0.00     0.016 A 
HETATM   21  C7  UNL     1      18.258  -0.088  51.252  1.00  0.00     0.043 A 
HETATM   22  C8  UNL     1      17.872  -0.891  52.305  1.00  0.00     0.116 A 
HETATM   23  F1  UNL     1      16.632  -1.454  52.256  1.00  0.00    -0.206 F 
HETATM   24  C9  UNL     1      18.755  -1.088  53.358  1.00  0.00     0.043 A 
HETATM   25  C10 UNL     1      19.988  -0.481  53.325  1.00  0.00     0.016 A 
ENDBRANCH   3  19
TORSDOF 4
ENDMDL
MODEL 9
REMARK VINA RESULT:      -8.1      4.383      6.670
REMARK  4 active torsions:
REMARK  status: ('A' for Active; 'I' for Inactive)
REMARK    1  A    between atoms: O1_1  and  C1_2 
REMARK    2  A    between atoms: C3_5  and  N1_6 
REMARK    3  A    between atoms: C4_8  and  C5_9 
REMARK    4  A    between atoms: C12_17  and  C13_18 
ROOT
HETATM    1  N1  UNL     1      24.236   1.566  51.709  1.00  0.00    -0.236 N 
HETATM    2  N2  UNL     1      25.601   1.494  51.924  1.00  0.00    -0.173 NA
HETATM    3  C4  UNL     1      25.892   0.417  52.612  1.00  0.00     0.067 C 
HETATM    4  C11 UNL     1      24.645  -0.337  52.911  1.00  0.00     0.094 C 
HETATM    5  C12 UNL     1      23.699   0.247  51.897  1.00  0.00     0.151 C 
ENDROOT
BRANCH   1   6
HETATM    6  C3  UNL     1      23.372   2.648  51.364  1.00  0.00     0.192 A 
HETATM    7  S1  UNL     1      23.310   4.009  52.688  1.00  0.00    -0.058 SA
HETATM    8  C2  UNL     1      22.147   4.981  51.711  1.00  0.00     0.111 A 
HETATM    9  C1  UNL     1      21.961   4.169  50.536  1.00  0.00     0.171 A 
HETATM   10  N3  UNL     1      22.667   3.058  50.582  1.00  0.00    -0.198 NA
BRANCH   9  11
HETATM   11  O1  UNL     1      21.172   4.360  49.381  1.00  0.00    -0.344 OA
HETATM   12  H1  UNL     1      21.238   3.618  48.681  1.00  0.00     0.219 HD
ENDBRANCH   9  11
ENDBRANCH   1   6
BRANCH   5  13
HETATM   13  C13 UNL     1      22.295   0.251  52.354  1.00  0.00    -0.032 C 
HETATM   14  C14 UNL     1      21.170   0.257  51.619  1.00  0.00     0.010 C 
HETATM   15  C15 UNL     1      19.900   0.261  52.337  1.00  0.00     0.014 C 
HETATM   16  C16 UNL     1      19.903   0.032  53.624  1.00  0.00    -0.014 C 
HETATM   17  C17 UNL     1      20.930   0.344  54.317  1.00  0.00    -0.013 C 
HETATM   18  C18 UNL     1      22.144   0.248  53.805  1.00  0.00     0.022 C 
ENDBRANCH   5  13
BRANCH   3  19
HETATM   19  C5  UNL     1      27.231   0.026  53.015  1.00  0.00    -0.010 A 
HETATM   20  C6  UNL     1      28.139   0.927  53.530  1.00  0.00     0.016 A 
HETATM   21  C7  UNL     1      29.409   0.543  53.910  1.00  0.00     0.043 A 
HETATM   22  C8  UNL     1      29.807  -0.771  53.780  1.00  0.00     0.116 A 
HETATM   23  F1  UNL     1      31.072  -1.095  54.170  1.00  0.00    -0.206 F 
HETATM   24  C9  UNL     1      28.910  -1.696  53.264  1.00  0.00     0.043 A 
HETATM   25  C10 UNL     1      27.652  -1.282  52.896  1.00  0.00     0.016 A 
ENDBRANCH   3  19
TORSDOF 4
ENDMDL
