MODEL 1
REMARK VINA RESULT:      -7.6      0.000      0.000
REMARK  9 active torsions:
REMARK  status: ('A' for Active; 'I' for Inactive)
REMARK    1  A    between atoms: C4_7  and  N2_8 
REMARK    2  A    between atoms: N2_8  and  C5_9 
REMARK    3  A    between atoms: C5_9  and  C6_10 
REMARK    4  A    between atoms: C7_11  and  C8_12 
REMARK    5  A    between atoms: C8_12  and  C9_13 
REMARK    6  A    between atoms: C12_17  and  C13_18 
REMARK    7  A    between atoms: C13_18  and  C14_19 
REMARK    8  A    between atoms: C14_19  and  C15_20 
REMARK    9  A    between atoms: C15_20  and  N3_21 
ROOT
HETATM    1  O1  UNL     1      21.851   5.018  52.078  1.00  0.00    -0.271 OA
HETATM    2  C1  UNL     1      21.218   3.945  51.943  1.00  0.00     0.246 C 
HETATM    3  C2  UNL     1      19.738   3.511  51.932  1.00  0.00     0.280 C 
HETATM    4  O2  UNL     1      19.658   2.091  52.230  1.00  0.00    -0.328 OA
HETATM    5  C3  UNL     1      20.097   0.899  51.663  1.00  0.00     0.141 C 
HETATM    6  N1  UNL     1      20.429   0.783  50.358  1.00  0.00    -0.228 NA
HETATM    7  C4  UNL     1      21.789   1.162  49.816  1.00  0.00     0.394 C 
HETATM    8  C10 UNL     1      22.394   1.756  51.093  1.00  0.00     0.067 C 
HETATM    9  C11 UNL     1      23.066   1.242  52.182  1.00  0.00     0.036 C 
HETATM   10  C12 UNL     1      22.688  -0.010  52.955  1.00  0.00    -0.059 C 
HETATM   11  C20 UNL     1      21.471  -0.631  53.061  1.00  0.00    -0.012 C 
HETATM   12  C21 UNL     1      20.083  -0.025  52.781  1.00  0.00     0.113 C 
HETATM   13  N4  UNL     1      22.408   3.064  51.778  1.00  0.00    -0.325 N 
HETATM   14  H31 UNL     1      23.384   3.104  52.085  1.00  0.00     0.168 HD
ENDROOT
BRANCH  10  15
HETATM   15  C13 UNL     1      23.923  -0.392  53.597  1.00  0.00     0.040 C 
BRANCH  15  16
HETATM   16  C14 UNL     1      25.193   0.199  53.057  1.00  0.00     0.024 C 
BRANCH  16  17
HETATM   17  C15 UNL     1      26.280  -0.780  52.787  1.00  0.00     0.117 C 
BRANCH  17  18
HETATM   18  N3  UNL     1      27.499  -0.619  53.459  1.00  0.00    -0.408 N 
HETATM   19  C16 UNL     1      28.550  -1.527  53.216  1.00  0.00     0.143 C 
HETATM   20  C17 UNL     1      29.878  -0.923  53.614  1.00  0.00     0.187 C 
HETATM   21  O3  UNL     1      29.731   0.467  53.578  1.00  0.00    -0.388 OA
HETATM   22  C18 UNL     1      28.980   0.813  54.698  1.00  0.00     0.187 C 
HETATM   23  C19 UNL     1      27.579   0.252  54.563  1.00  0.00     0.143 C 
ENDBRANCH  17  18
ENDBRANCH  16  17
ENDBRANCH  15  16
ENDBRANCH  10  15
BRANCH   7  24
HETATM   24  N2  UNL     1      21.726   2.055  48.744  1.00  0.00     0.117 N 
HETATM   25  H4  UNL     1      21.382   1.557  47.898  1.00  0.00     0.319 HD
BRANCH  24  26
HETATM   26  C5  UNL     1      23.067   2.526  48.453  1.00  0.00     0.300 C 
BRANCH  26  27
HETATM   27  C6  UNL     1      23.142   3.986  48.365  1.00  0.00    -0.001 C 
HETATM   28  C7  UNL     1      23.935   4.855  48.973  1.00  0.00    -0.027 C 
BRANCH  28  29
HETATM   29  C8  UNL     1      25.024   4.645  49.959  1.00  0.00     0.058 C 
BRANCH  29  30
HETATM   30  C9  UNL     1      26.331   4.398  49.235  1.00  0.00     0.225 C 
HETATM   31  F1  UNL     1      26.502   3.006  49.192  1.00  0.00    -0.255 F 
ENDBRANCH  29  30
ENDBRANCH  28  29
ENDBRANCH  26  27
ENDBRANCH  24  26
ENDBRANCH   7  24
TORSDOF 9
ENDMDL
MODEL 2
REMARK VINA RESULT:      -7.1      2.065      3.111
REMARK  9 active torsions:
REMARK  status: ('A' for Active; 'I' for Inactive)
REMARK    1  A    between atoms: C4_7  and  N2_8 
REMARK    2  A    between atoms: N2_8  and  C5_9 
REMARK    3  A    between atoms: C5_9  and  C6_10 
REMARK    4  A    between atoms: C7_11  and  C8_12 
REMARK    5  A    between atoms: C8_12  and  C9_13 
REMARK    6  A    between atoms: C12_17  and  C13_18 
REMARK    7  A    between atoms: C13_18  and  C14_19 
REMARK    8  A    between atoms: C14_19  and  C15_20 
REMARK    9  A    between atoms: C15_20  and  N3_21 
ROOT
HETATM    1  O1  UNL     1      21.521   6.246  51.304  1.00  0.00    -0.271 OA
HETATM    2  C1  UNL     1      21.534   5.329  50.450  1.00  0.00     0.246 C 
HETATM    3  C2  UNL     1      20.921   5.090  49.056  1.00  0.00     0.280 C 
HETATM    4  O2  UNL     1      20.887   3.660  48.792  1.00  0.00    -0.328 OA
HETATM    5  C3  UNL     1      21.803   2.622  48.659  1.00  0.00     0.141 C 
HETATM    6  N1  UNL     1      23.105   2.822  48.358  1.00  0.00    -0.228 NA
HETATM    7  C4  UNL     1      24.147   3.172  49.397  1.00  0.00     0.394 C 
HETATM    8  C10 UNL     1      23.225   3.328  50.612  1.00  0.00     0.067 C 
HETATM    9  C11 UNL     1      22.701   2.466  51.552  1.00  0.00     0.036 C 
HETATM   10  C12 UNL     1      22.087   1.105  51.272  1.00  0.00    -0.059 C 
HETATM   11  C20 UNL     1      21.532   0.624  50.115  1.00  0.00    -0.012 C 
HETATM   12  C21 UNL     1      21.003   1.440  48.920  1.00  0.00     0.113 C 
HETATM   13  N4  UNL     1      22.402   4.393  51.217  1.00  0.00    -0.325 N 
HETATM   14  H31 UNL     1      22.594   4.236  52.210  1.00  0.00     0.168 HD
ENDROOT
BRANCH  10  15
HETATM   15  C13 UNL     1      22.190   0.424  52.540  1.00  0.00     0.040 C 
BRANCH  15  16
HETATM   16  C14 UNL     1      23.432   0.659  53.350  1.00  0.00     0.024 C 
BRANCH  16  17
HETATM   17  C15 UNL     1      24.356  -0.504  53.439  1.00  0.00     0.117 C 
BRANCH  17  18
HETATM   18  N3  UNL     1      25.734  -0.255  53.468  1.00  0.00    -0.408 N 
HETATM   19  C16 UNL     1      26.236   0.780  54.284  1.00  0.00     0.143 C 
HETATM   20  C17 UNL     1      27.707   0.572  54.565  1.00  0.00     0.187 C 
HETATM   21  O3  UNL     1      27.972  -0.791  54.407  1.00  0.00    -0.388 OA
HETATM   22  C18 UNL     1      27.966  -1.037  53.036  1.00  0.00     0.187 C 
HETATM   23  C19 UNL     1      26.569  -0.828  52.489  1.00  0.00     0.143 C 
ENDBRANCH  17  18
ENDBRANCH  16  17
ENDBRANCH  15  16
ENDBRANCH  10  15
BRANCH   7  24
HETATM   24  N2  UNL     1      24.876   4.321  49.081  1.00  0.00     0.117 N 
HETATM   25  H4  UNL     1      25.071   4.338  48.059  1.00  0.00     0.319 HD
BRANCH  24  26
HETATM   26  C5  UNL     1      26.154   4.262  49.764  1.00  0.00     0.300 C 
BRANCH  26  27
HETATM   27  C6  UNL     1      27.265   4.696  48.914  1.00  0.00    -0.001 C 
HETATM   28  C7  UNL     1      27.498   5.849  48.307  1.00  0.00    -0.027 C 
BRANCH  28  29
HETATM   29  C8  UNL     1      26.706   7.104  48.279  1.00  0.00     0.058 C 
BRANCH  29  30
HETATM   30  C9  UNL     1      27.202   8.048  49.355  1.00  0.00     0.225 C 
HETATM   31  F1  UNL     1      26.416   7.798  50.491  1.00  0.00    -0.255 F 
ENDBRANCH  29  30
ENDBRANCH  28  29
ENDBRANCH  26  27
ENDBRANCH  24  26
ENDBRANCH   7  24
TORSDOF 9
ENDMDL
MODEL 3
REMARK VINA RESULT:      -7.1      2.218      4.388
REMARK  9 active torsions:
REMARK  status: ('A' for Active; 'I' for Inactive)
REMARK    1  A    between atoms: C4_7  and  N2_8 
REMARK    2  A    between atoms: N2_8  and  C5_9 
REMARK    3  A    between atoms: C5_9  and  C6_10 
REMARK    4  A    between atoms: C7_11  and  C8_12 
REMARK    5  A    between atoms: C8_12  and  C9_13 
REMARK    6  A    between atoms: C12_17  and  C13_18 
REMARK    7  A    between atoms: C13_18  and  C14_19 
REMARK    8  A    between atoms: C14_19  and  C15_20 
REMARK    9  A    between atoms: C15_20  and  N3_21 
ROOT
HETATM    1  O1  UNL     1      22.595   2.043  47.442  1.00  0.00    -0.271 OA
HETATM    2  C1  UNL     1      22.305   2.929  48.279  1.00  0.00     0.246 C 
HETATM    3  C2  UNL     1      21.885   4.413  48.238  1.00  0.00     0.280 C 
HETATM    4  O2  UNL     1      22.172   5.022  49.526  1.00  0.00    -0.328 OA
HETATM    5  C3  UNL     1      21.770   4.859  50.849  1.00  0.00     0.141 C 
HETATM    6  N1  UNL     1      20.614   4.254  51.198  1.00  0.00    -0.228 NA
HETATM    7  C4  UNL     1      20.471   2.752  51.312  1.00  0.00     0.394 C 
HETATM    8  C10 UNL     1      21.857   2.345  50.799  1.00  0.00     0.067 C 
HETATM    9  C11 UNL     1      23.099   2.184  51.376  1.00  0.00     0.036 C 
HETATM   10  C12 UNL     1      23.755   3.134  52.364  1.00  0.00    -0.059 C 
HETATM   11  C20 UNL     1      23.524   4.469  52.568  1.00  0.00    -0.012 C 
HETATM   12  C21 UNL     1      22.855   5.463  51.601  1.00  0.00     0.113 C 
HETATM   13  N4  UNL     1      22.497   2.089  49.494  1.00  0.00    -0.325 N 
HETATM   14  H31 UNL     1      23.065   1.269  49.721  1.00  0.00     0.168 HD
ENDROOT
BRANCH  10  15
HETATM   15  C13 UNL     1      24.725   2.303  53.034  1.00  0.00     0.040 C 
BRANCH  15  16
HETATM   16  C14 UNL     1      25.108   1.014  52.366  1.00  0.00     0.024 C 
BRANCH  16  17
HETATM   17  C15 UNL     1      25.356  -0.126  53.289  1.00  0.00     0.117 C 
BRANCH  17  18
HETATM   18  N3  UNL     1      26.673  -0.371  53.700  1.00  0.00    -0.408 N 
HETATM   19  C16 UNL     1      27.440  -1.345  53.027  1.00  0.00     0.143 C 
HETATM   20  C17 UNL     1      28.916  -1.115  53.260  1.00  0.00     0.187 C 
HETATM   21  O3  UNL     1      29.081   0.234  53.588  1.00  0.00    -0.388 OA
HETATM   22  C18 UNL     1      28.619   0.380  54.894  1.00  0.00     0.187 C 
HETATM   23  C19 UNL     1      27.125   0.131  54.935  1.00  0.00     0.143 C 
ENDBRANCH  17  18
ENDBRANCH  16  17
ENDBRANCH  15  16
ENDBRANCH  10  15
BRANCH   7  24
HETATM   24  N2  UNL     1      19.410   2.241  50.561  1.00  0.00     0.117 N 
HETATM   25  H4  UNL     1      18.970   3.009  50.015  1.00  0.00     0.319 HD
BRANCH  24  26
HETATM   26  C5  UNL     1      18.404   1.725  51.470  1.00  0.00     0.300 C 
BRANCH  26  27
HETATM   27  C6  UNL     1      18.455   0.267  51.594  1.00  0.00    -0.001 C 
HETATM   28  C7  UNL     1      19.064  -0.511  52.475  1.00  0.00    -0.027 C 
BRANCH  28  29
HETATM   29  C8  UNL     1      19.912  -0.169  53.644  1.00  0.00     0.058 C 
BRANCH  29  30
HETATM   30  C9  UNL     1      21.370  -0.399  53.306  1.00  0.00     0.225 C 
HETATM   31  F1  UNL     1      22.101   0.540  54.051  1.00  0.00    -0.255 F 
ENDBRANCH  29  30
ENDBRANCH  28  29
ENDBRANCH  26  27
ENDBRANCH  24  26
ENDBRANCH   7  24
TORSDOF 9
ENDMDL
MODEL 4
REMARK VINA RESULT:      -7.1      2.333      4.403
REMARK  9 active torsions:
REMARK  status: ('A' for Active; 'I' for Inactive)
REMARK    1  A    between atoms: C4_7  and  N2_8 
REMARK    2  A    between atoms: N2_8  and  C5_9 
REMARK    3  A    between atoms: C5_9  and  C6_10 
REMARK    4  A    between atoms: C7_11  and  C8_12 
REMARK    5  A    between atoms: C8_12  and  C9_13 
REMARK    6  A    between atoms: C12_17  and  C13_18 
REMARK    7  A    between atoms: C13_18  and  C14_19 
REMARK    8  A    between atoms: C14_19  and  C15_20 
REMARK    9  A    between atoms: C15_20  and  N3_21 
ROOT
HETATM    1  O1  UNL     1      22.240   2.188  47.672  1.00  0.00    -0.271 OA
HETATM    2  C1  UNL     1      22.371   2.833  48.738  1.00  0.00     0.246 C 
HETATM    3  C2  UNL     1      22.745   4.276  49.135  1.00  0.00     0.280 C 
HETATM    4  O2  UNL     1      23.206   4.283  50.514  1.00  0.00    -0.328 OA
HETATM    5  C3  UNL     1      22.685   3.985  51.769  1.00  0.00     0.141 C 
HETATM    6  N1  UNL     1      21.360   3.963  52.030  1.00  0.00    -0.228 NA
HETATM    7  C4  UNL     1      20.483   2.764  51.743  1.00  0.00     0.394 C 
HETATM    8  C10 UNL     1      21.516   1.882  51.032  1.00  0.00     0.067 C 
HETATM    9  C11 UNL     1      22.471   0.978  51.444  1.00  0.00     0.036 C 
HETATM   10  C12 UNL     1      23.441   1.166  52.598  1.00  0.00    -0.059 C 
HETATM   11  C20 UNL     1      23.889   2.325  53.175  1.00  0.00    -0.012 C 
HETATM   12  C21 UNL     1      23.870   3.741  52.570  1.00  0.00     0.113 C 
HETATM   13  N4  UNL     1      22.034   1.712  49.660  1.00  0.00    -0.325 N 
HETATM   14  H31 UNL     1      22.103   0.693  49.611  1.00  0.00     0.168 HD
ENDROOT
BRANCH  10  15
HETATM   15  C13 UNL     1      23.821  -0.184  52.940  1.00  0.00     0.040 C 
BRANCH  15  16
HETATM   16  C14 UNL     1      24.873  -0.357  53.998  1.00  0.00     0.024 C 
BRANCH  16  17
HETATM   17  C15 UNL     1      26.195  -0.825  53.503  1.00  0.00     0.117 C 
BRANCH  17  18
HETATM   18  N3  UNL     1      27.319  -0.028  53.760  1.00  0.00    -0.408 N 
HETATM   19  C16 UNL     1      28.591  -0.631  53.848  1.00  0.00     0.143 C 
HETATM   20  C17 UNL     1      29.682   0.393  53.626  1.00  0.00     0.187 C 
HETATM   21  O3  UNL     1      29.124   1.443  52.891  1.00  0.00    -0.388 OA
HETATM   22  C18 UNL     1      28.319   2.157  53.775  1.00  0.00     0.187 C 
HETATM   23  C19 UNL     1      27.150   1.297  54.207  1.00  0.00     0.143 C 
ENDBRANCH  17  18
ENDBRANCH  16  17
ENDBRANCH  15  16
ENDBRANCH  10  15
BRANCH   7  24
HETATM   24  N2  UNL     1      19.364   3.073  50.967  1.00  0.00     0.117 N 
HETATM   25  H4  UNL     1      19.108   4.071  51.108  1.00  0.00     0.319 HD
BRANCH  24  26
HETATM   26  C5  UNL     1      18.246   2.271  51.425  1.00  0.00     0.300 C 
BRANCH  26  27
HETATM   27  C6  UNL     1      18.275   0.908  50.891  1.00  0.00    -0.001 C 
HETATM   28  C7  UNL     1      18.374  -0.264  51.500  1.00  0.00    -0.027 C 
BRANCH  28  29
HETATM   29  C8  UNL     1      18.490  -0.597  52.942  1.00  0.00     0.058 C 
BRANCH  29  30
HETATM   30  C9  UNL     1      19.951  -0.654  53.339  1.00  0.00     0.225 C 
HETATM   31  F1  UNL     1      20.173   0.446  54.182  1.00  0.00    -0.255 F 
ENDBRANCH  29  30
ENDBRANCH  28  29
ENDBRANCH  26  27
ENDBRANCH  24  26
ENDBRANCH   7  24
TORSDOF 9
ENDMDL
MODEL 5
REMARK VINA RESULT:      -7.0      1.672      2.161
REMARK  9 active torsions:
REMARK  status: ('A' for Active; 'I' for Inactive)
REMARK    1  A    between atoms: C4_7  and  N2_8 
REMARK    2  A    between atoms: N2_8  and  C5_9 
REMARK    3  A    between atoms: C5_9  and  C6_10 
REMARK    4  A    between atoms: C7_11  and  C8_12 
REMARK    5  A    between atoms: C8_12  and  C9_13 
REMARK    6  A    between atoms: C12_17  and  C13_18 
REMARK    7  A    between atoms: C13_18  and  C14_19 
REMARK    8  A    between atoms: C14_19  and  C15_20 
REMARK    9  A    between atoms: C15_20  and  N3_21 
ROOT
HETATM    1  O1  UNL     1      19.310   4.127  51.926  1.00  0.00    -0.271 OA
HETATM    2  C1  UNL     1      19.687   2.934  51.851  1.00  0.00     0.246 C 
HETATM    3  C2  UNL     1      19.026   1.544  51.944  1.00  0.00     0.280 C 
HETATM    4  O2  UNL     1      20.041   0.557  52.271  1.00  0.00    -0.328 OA
HETATM    5  C3  UNL     1      21.206   0.057  51.697  1.00  0.00     0.141 C 
HETATM    6  N1  UNL     1      21.473   0.148  50.376  1.00  0.00    -0.228 NA
HETATM    7  C4  UNL     1      22.078   1.380  49.740  1.00  0.00     0.394 C 
HETATM    8  C10 UNL     1      22.076   2.302  50.965  1.00  0.00     0.067 C 
HETATM    9  C11 UNL     1      22.939   2.525  52.016  1.00  0.00     0.036 C 
HETATM   10  C12 UNL     1      23.646   1.457  52.834  1.00  0.00    -0.059 C 
HETATM   11  C20 UNL     1      23.303   0.144  53.029  1.00  0.00    -0.012 C 
HETATM   12  C21 UNL     1      21.920  -0.502  52.829  1.00  0.00     0.113 C 
HETATM   13  N4  UNL     1      21.130   3.223  51.625  1.00  0.00    -0.325 N 
HETATM   14  H31 UNL     1      21.759   3.994  51.867  1.00  0.00     0.168 HD
ENDROOT
BRANCH  10  15
HETATM   15  C13 UNL     1      24.772   2.159  53.401  1.00  0.00     0.040 C 
BRANCH  15  16
HETATM   16  C14 UNL     1      25.645   2.936  52.459  1.00  0.00     0.024 C 
BRANCH  16  17
HETATM   17  C15 UNL     1      26.721   2.147  51.800  1.00  0.00     0.117 C 
BRANCH  17  18
HETATM   18  N3  UNL     1      27.187   0.995  52.446  1.00  0.00    -0.408 N 
HETATM   19  C16 UNL     1      28.234   1.101  53.386  1.00  0.00     0.143 C 
HETATM   20  C17 UNL     1      28.247  -0.099  54.306  1.00  0.00     0.187 C 
HETATM   21  O3  UNL     1      26.958  -0.639  54.306  1.00  0.00    -0.388 OA
HETATM   22  C18 UNL     1      26.805  -1.291  53.085  1.00  0.00     0.187 C 
HETATM   23  C19 UNL     1      26.821  -0.276  51.961  1.00  0.00     0.143 C 
ENDBRANCH  17  18
ENDBRANCH  16  17
ENDBRANCH  15  16
ENDBRANCH  10  15
BRANCH   7  24
HETATM   24  N2  UNL     1      21.338   1.863  48.659  1.00  0.00     0.117 N 
HETATM   25  H4  UNL     1      20.877   1.068  48.171  1.00  0.00     0.319 HD
BRANCH  24  26
HETATM   26  C5  UNL     1      22.246   2.484  47.714  1.00  0.00     0.300 C 
BRANCH  26  27
HETATM   27  C6  UNL     1      22.230   3.946  47.796  1.00  0.00    -0.001 C 
HETATM   28  C7  UNL     1      23.079   4.795  48.354  1.00  0.00    -0.027 C 
BRANCH  28  29
HETATM   29  C8  UNL     1      24.344   4.554  49.093  1.00  0.00     0.058 C 
BRANCH  29  30
HETATM   30  C9  UNL     1      24.448   5.514  50.259  1.00  0.00     0.225 C 
HETATM   31  F1  UNL     1      23.150   5.649  50.777  1.00  0.00    -0.255 F 
ENDBRANCH  29  30
ENDBRANCH  28  29
ENDBRANCH  26  27
ENDBRANCH  24  26
ENDBRANCH   7  24
TORSDOF 9
ENDMDL
MODEL 6
REMARK VINA RESULT:      -7.0      9.316     13.172
REMARK  9 active torsions:
REMARK  status: ('A' for Active; 'I' for Inactive)
REMARK    1  A    between atoms: C4_7  and  N2_8 
REMARK    2  A    between atoms: N2_8  and  C5_9 
REMARK    3  A    between atoms: C5_9  and  C6_10 
REMARK    4  A    between atoms: C7_11  and  C8_12 
REMARK    5  A    between atoms: C8_12  and  C9_13 
REMARK    6  A    between atoms: C12_17  and  C13_18 
REMARK    7  A    between atoms: C13_18  and  C14_19 
REMARK    8  A    between atoms: C14_19  and  C15_20 
REMARK    9  A    between atoms: C15_20  and  N3_21 
ROOT
HETATM    1  O1  UNL     1      35.284   8.839  47.480  1.00  0.00    -0.271 OA
HETATM    2  C1  UNL     1      35.061   7.634  47.740  1.00  0.00     0.246 C 
HETATM    3  C2  UNL     1      35.412   6.650  48.874  1.00  0.00     0.280 C 
HETATM    4  O2  UNL     1      35.298   5.290  48.374  1.00  0.00    -0.328 OA
HETATM    5  C3  UNL     1      34.300   4.468  47.859  1.00  0.00     0.141 C 
HETATM    6  N1  UNL     1      32.984   4.683  48.077  1.00  0.00    -0.228 NA
HETATM    7  C4  UNL     1      32.159   5.649  47.257  1.00  0.00     0.394 C 
HETATM    8  C10 UNL     1      33.281   6.246  46.399  1.00  0.00     0.067 C 
HETATM    9  C11 UNL     1      33.891   5.894  45.214  1.00  0.00     0.036 C 
HETATM   10  C12 UNL     1      34.350   4.499  44.825  1.00  0.00    -0.059 C 
HETATM   11  C20 UNL     1      34.666   3.434  45.628  1.00  0.00    -0.012 C 
HETATM   12  C21 UNL     1      35.045   3.466  47.120  1.00  0.00     0.113 C 
HETATM   13  N4  UNL     1      34.268   7.337  46.514  1.00  0.00    -0.325 N 
HETATM   14  H31 UNL     1      34.235   7.720  45.566  1.00  0.00     0.168 HD
ENDROOT
BRANCH  10  15
HETATM   15  C13 UNL     1      34.412   4.556  43.385  1.00  0.00     0.040 C 
BRANCH  15  16
HETATM   16  C14 UNL     1      33.119   4.742  42.646  1.00  0.00     0.024 C 
BRANCH  16  17
HETATM   17  C15 UNL     1      33.246   4.842  41.167  1.00  0.00     0.117 C 
BRANCH  17  18
HETATM   18  N3  UNL     1      32.885   3.730  40.394  1.00  0.00    -0.408 N 
HETATM   19  C16 UNL     1      33.872   2.795  40.020  1.00  0.00     0.143 C 
HETATM   20  C17 UNL     1      33.239   1.472  39.652  1.00  0.00     0.187 C 
HETATM   21  O3  UNL     1      31.999   1.410  40.293  1.00  0.00    -0.388 OA
HETATM   22  C18 UNL     1      31.153   2.268  39.594  1.00  0.00     0.187 C 
HETATM   23  C19 UNL     1      31.627   3.697  39.761  1.00  0.00     0.143 C 
ENDBRANCH  17  18
ENDBRANCH  16  17
ENDBRANCH  15  16
ENDBRANCH  10  15
BRANCH   7  24
HETATM   24  N2  UNL     1      31.472   6.585  48.032  1.00  0.00     0.117 N 
HETATM   25  H4  UNL     1      31.445   6.263  49.021  1.00  0.00     0.319 HD
BRANCH  24  26
HETATM   26  C5  UNL     1      30.102   6.661  47.564  1.00  0.00     0.300 C 
BRANCH  26  27
HETATM   27  C6  UNL     1      29.239   5.654  48.186  1.00  0.00    -0.001 C 
HETATM   28  C7  UNL     1      27.940   5.659  48.442  1.00  0.00    -0.027 C 
BRANCH  28  29
HETATM   29  C8  UNL     1      26.908   6.694  48.184  1.00  0.00     0.058 C 
BRANCH  29  30
HETATM   30  C9  UNL     1      27.020   7.798  49.215  1.00  0.00     0.225 C 
HETATM   31  F1  UNL     1      26.331   7.348  50.352  1.00  0.00    -0.255 F 
ENDBRANCH  29  30
ENDBRANCH  28  29
ENDBRANCH  26  27
ENDBRANCH  24  26
ENDBRANCH   7  24
TORSDOF 9
ENDMDL
MODEL 7
REMARK VINA RESULT:      -6.9      2.836      6.875
REMARK  9 active torsions:
REMARK  status: ('A' for Active; 'I' for Inactive)
REMARK    1  A    between atoms: C4_7  and  N2_8 
REMARK    2  A    between atoms: N2_8  and  C5_9 
REMARK    3  A    between atoms: C5_9  and  C6_10 
REMARK    4  A    between atoms: C7_11  and  C8_12 
REMARK    5  A    between atoms: C8_12  and  C9_13 
REMARK    6  A    between atoms: C12_17  and  C13_18 
REMARK    7  A    between atoms: C13_18  and  C14_19 
REMARK    8  A    between atoms: C14_19  and  C15_20 
REMARK    9  A    between atoms: C15_20  and  N3_21 
ROOT
HETATM    1  O1  UNL     1      23.349   5.112  53.581  1.00  0.00    -0.271 OA
HETATM    2  C1  UNL     1      23.584   5.031  52.353  1.00  0.00     0.246 C 
HETATM    3  C2  UNL     1      23.834   6.017  51.194  1.00  0.00     0.280 C 
HETATM    4  O2  UNL     1      23.552   5.349  49.934  1.00  0.00    -0.328 OA
HETATM    5  C3  UNL     1      24.041   4.258  49.222  1.00  0.00     0.141 C 
HETATM    6  N1  UNL     1      25.275   3.743  49.417  1.00  0.00    -0.228 NA
HETATM    7  C4  UNL     1      25.590   2.752  50.516  1.00  0.00     0.394 C 
HETATM    8  C10 UNL     1      24.232   2.749  51.227  1.00  0.00     0.067 C 
HETATM    9  C11 UNL     1      23.049   2.061  51.062  1.00  0.00     0.036 C 
HETATM   10  C12 UNL     1      22.346   1.795  49.742  1.00  0.00    -0.059 C 
HETATM   11  C20 UNL     1      22.438   2.477  48.556  1.00  0.00    -0.012 C 
HETATM   12  C21 UNL     1      22.939   3.917  48.341  1.00  0.00     0.113 C 
HETATM   13  N4  UNL     1      23.554   3.544  52.270  1.00  0.00    -0.325 N 
HETATM   14  H31 UNL     1      23.094   2.801  52.802  1.00  0.00     0.168 HD
ENDROOT
BRANCH  10  15
HETATM   15  C13 UNL     1      21.513   0.653  50.030  1.00  0.00     0.040 C 
BRANCH  15  16
HETATM   16  C14 UNL     1      21.189   0.382  51.471  1.00  0.00     0.024 C 
BRANCH  16  17
HETATM   17  C15 UNL     1      19.867   0.891  51.926  1.00  0.00     0.117 C 
BRANCH  17  18
HETATM   18  N3  UNL     1      18.828  -0.031  52.107  1.00  0.00    -0.408 N 
HETATM   19  C16 UNL     1      18.910  -0.971  53.155  1.00  0.00     0.143 C 
HETATM   20  C17 UNL     1      17.538  -1.511  53.494  1.00  0.00     0.187 C 
HETATM   21  O3  UNL     1      16.602  -0.561  53.078  1.00  0.00    -0.388 OA
HETATM   22  C18 UNL     1      16.543  -0.650  51.689  1.00  0.00     0.187 C 
HETATM   23  C19 UNL     1      17.865  -0.207  51.095  1.00  0.00     0.143 C 
ENDBRANCH  17  18
ENDBRANCH  16  17
ENDBRANCH  15  16
ENDBRANCH  10  15
BRANCH   7  24
HETATM   24  N2  UNL     1      26.658   3.146  51.324  1.00  0.00     0.117 N 
HETATM   25  H4  UNL     1      27.443   3.477  50.726  1.00  0.00     0.319 HD
BRANCH  24  26
HETATM   26  C5  UNL     1      27.134   1.990  52.060  1.00  0.00     0.300 C 
BRANCH  26  27
HETATM   27  C6  UNL     1      26.736   2.019  53.469  1.00  0.00    -0.001 C 
HETATM   28  C7  UNL     1      26.276   1.064  54.263  1.00  0.00    -0.027 C 
BRANCH  28  29
HETATM   29  C8  UNL     1      26.004  -0.370  53.994  1.00  0.00     0.058 C 
BRANCH  29  30
HETATM   30  C9  UNL     1      24.695  -0.513  53.245  1.00  0.00     0.225 C 
HETATM   31  F1  UNL     1      23.821   0.439  53.793  1.00  0.00    -0.255 F 
ENDBRANCH  29  30
ENDBRANCH  28  29
ENDBRANCH  26  27
ENDBRANCH  24  26
ENDBRANCH   7  24
TORSDOF 9
ENDMDL
MODEL 8
REMARK VINA RESULT:      -6.9      2.450      5.094
REMARK  9 active torsions:
REMARK  status: ('A' for Active; 'I' for Inactive)
REMARK    1  A    between atoms: C4_7  and  N2_8 
REMARK    2  A    between atoms: N2_8  and  C5_9 
REMARK    3  A    between atoms: C5_9  and  C6_10 
REMARK    4  A    between atoms: C7_11  and  C8_12 
REMARK    5  A    between atoms: C8_12  and  C9_13 
REMARK    6  A    between atoms: C12_17  and  C13_18 
REMARK    7  A    between atoms: C13_18  and  C14_19 
REMARK    8  A    between atoms: C14_19  and  C15_20 
REMARK    9  A    between atoms: C15_20  and  N3_21 
ROOT
HETATM    1  O1  UNL     1      21.376   2.854  47.183  1.00  0.00    -0.271 OA
HETATM    2  C1  UNL     1      21.915   3.929  47.534  1.00  0.00     0.246 C 
HETATM    3  C2  UNL     1      21.866   5.405  47.087  1.00  0.00     0.280 C 
HETATM    4  O2  UNL     1      23.070   6.079  47.544  1.00  0.00    -0.328 OA
HETATM    5  C3  UNL     1      23.675   6.382  48.760  1.00  0.00     0.141 C 
HETATM    6  N1  UNL     1      22.999   6.425  49.928  1.00  0.00    -0.228 NA
HETATM    7  C4  UNL     1      22.702   5.193  50.755  1.00  0.00     0.394 C 
HETATM    8  C10 UNL     1      23.240   4.128  49.792  1.00  0.00     0.067 C 
HETATM    9  C11 UNL     1      24.476   3.567  49.555  1.00  0.00     0.036 C 
HETATM   10  C12 UNL     1      25.792   4.318  49.443  1.00  0.00    -0.059 C 
HETATM   11  C20 UNL     1      26.017   5.631  49.124  1.00  0.00    -0.012 C 
HETATM   12  C21 UNL     1      25.063   6.595  48.394  1.00  0.00     0.113 C 
HETATM   13  N4  UNL     1      22.735   3.358  48.638  1.00  0.00    -0.325 N 
HETATM   14  H31 UNL     1      23.139   2.439  48.836  1.00  0.00     0.168 HD
ENDROOT
BRANCH  10  15
HETATM   15  C13 UNL     1      26.781   3.305  49.724  1.00  0.00     0.040 C 
BRANCH  15  16
HETATM   16  C14 UNL     1      26.419   2.248  50.728  1.00  0.00     0.024 C 
BRANCH  16  17
HETATM   17  C15 UNL     1      27.129   2.349  52.032  1.00  0.00     0.117 C 
BRANCH  17  18
HETATM   18  N3  UNL     1      27.443   1.162  52.708  1.00  0.00    -0.408 N 
HETATM   19  C16 UNL     1      28.540   1.138  53.593  1.00  0.00     0.143 C 
HETATM   20  C17 UNL     1      28.415  -0.013  54.566  1.00  0.00     0.187 C 
HETATM   21  O3  UNL     1      27.060  -0.343  54.648  1.00  0.00    -0.388 OA
HETATM   22  C18 UNL     1      26.745  -1.009  53.465  1.00  0.00     0.187 C 
HETATM   23  C19 UNL     1      26.861  -0.052  52.297  1.00  0.00     0.143 C 
ENDBRANCH  17  18
ENDBRANCH  16  17
ENDBRANCH  15  16
ENDBRANCH  10  15
BRANCH   7  24
HETATM   24  N2  UNL     1      21.348   5.051  51.067  1.00  0.00     0.117 N 
HETATM   25  H4  UNL     1      20.924   5.991  51.209  1.00  0.00     0.319 HD
BRANCH  24  26
HETATM   26  C5  UNL     1      21.233   4.330  52.320  1.00  0.00     0.300 C 
BRANCH  26  27
HETATM   27  C6  UNL     1      20.850   2.930  52.130  1.00  0.00    -0.001 C 
HETATM   28  C7  UNL     1      21.563   1.816  52.194  1.00  0.00    -0.027 C 
BRANCH  28  29
HETATM   29  C8  UNL     1      23.004   1.606  52.481  1.00  0.00     0.058 C 
BRANCH  29  30
HETATM   30  C9  UNL     1      23.170   0.481  53.482  1.00  0.00     0.225 C 
HETATM   31  F1  UNL     1      23.515  -0.660  52.740  1.00  0.00    -0.255 F 
ENDBRANCH  29  30
ENDBRANCH  28  29
ENDBRANCH  26  27
ENDBRANCH  24  26
ENDBRANCH   7  24
TORSDOF 9
ENDMDL
MODEL 9
REMARK VINA RESULT:      -6.9      3.736      6.837
REMARK  9 active torsions:
REMARK  status: ('A' for Active; 'I' for Inactive)
REMARK    1  A    between atoms: C4_7  and  N2_8 
REMARK    2  A    between atoms: N2_8  and  C5_9 
REMARK    3  A    between atoms: C5_9  and  C6_10 
REMARK    4  A    between atoms: C7_11  and  C8_12 
REMARK    5  A    between atoms: C8_12  and  C9_13 
REMARK    6  A    between atoms: C12_17  and  C13_18 
REMARK    7  A    between atoms: C13_18  and  C14_19 
REMARK    8  A    between atoms: C14_19  and  C15_20 
REMARK    9  A    between atoms: C15_20  and  N3_21 
ROOT
HETATM    1  O1  UNL     1      22.260   1.822  48.356  1.00  0.00    -0.271 OA
HETATM    2  C1  UNL     1      22.461   2.561  49.348  1.00  0.00     0.246 C 
HETATM    3  C2  UNL     1      21.633   3.085  50.539  1.00  0.00     0.280 C 
HETATM    4  O2  UNL     1      22.267   4.282  51.067  1.00  0.00    -0.328 OA
HETATM    5  C3  UNL     1      23.482   4.623  51.654  1.00  0.00     0.141 C 
HETATM    6  N1  UNL     1      24.289   3.721  52.254  1.00  0.00    -0.228 NA
HETATM    7  C4  UNL     1      25.272   2.859  51.493  1.00  0.00     0.394 C 
HETATM    8  C10 UNL     1      24.886   3.266  50.066  1.00  0.00     0.067 C 
HETATM    9  C11 UNL     1      25.250   4.286  49.213  1.00  0.00     0.036 C 
HETATM   10  C12 UNL     1      25.391   5.753  49.583  1.00  0.00    -0.059 C 
HETATM   11  C20 UNL     1      24.816   6.447  50.616  1.00  0.00    -0.012 C 
HETATM   12  C21 UNL     1      23.568   6.054  51.428  1.00  0.00     0.113 C 
HETATM   13  N4  UNL     1      23.891   2.857  49.055  1.00  0.00    -0.325 N 
HETATM   14  H31 UNL     1      24.462   2.893  48.207  1.00  0.00     0.168 HD
ENDROOT
BRANCH  10  15
HETATM   15  C13 UNL     1      26.261   6.275  48.557  1.00  0.00     0.040 C 
BRANCH  15  16
HETATM   16  C14 UNL     1      27.677   5.778  48.536  1.00  0.00     0.024 C 
BRANCH  16  17
HETATM   17  C15 UNL     1      28.635   6.634  47.786  1.00  0.00     0.117 C 
BRANCH  17  18
HETATM   18  N3  UNL     1      29.979   6.632  48.185  1.00  0.00    -0.408 N 
HETATM   19  C16 UNL     1      30.538   7.798  48.746  1.00  0.00     0.143 C 
HETATM   20  C17 UNL     1      31.777   7.463  49.546  1.00  0.00     0.187 C 
HETATM   21  O3  UNL     1      31.677   6.122  49.926  1.00  0.00    -0.388 OA
HETATM   22  C18 UNL     1      31.935   5.369  48.783  1.00  0.00     0.187 C 
HETATM   23  C19 UNL     1      30.829   5.588  47.771  1.00  0.00     0.143 C 
ENDBRANCH  17  18
ENDBRANCH  16  17
ENDBRANCH  15  16
ENDBRANCH  10  15
BRANCH   7  24
HETATM   24  N2  UNL     1      25.130   1.496  51.757  1.00  0.00     0.117 N 
HETATM   25  H4  UNL     1      24.806   1.364  52.738  1.00  0.00     0.319 HD
BRANCH  24  26
HETATM   26  C5  UNL     1      26.429   0.862  51.643  1.00  0.00     0.300 C 
BRANCH  26  27
HETATM   27  C6  UNL     1      26.462  -0.468  52.255  1.00  0.00    -0.001 C 
HETATM   28  C7  UNL     1      27.271  -0.988  53.164  1.00  0.00    -0.027 C 
BRANCH  28  29
HETATM   29  C8  UNL     1      28.431  -0.397  53.878  1.00  0.00     0.058 C 
BRANCH  29  30
HETATM   30  C9  UNL     1      29.694  -1.152  53.518  1.00  0.00     0.225 C 
HETATM   31  F1  UNL     1      30.746  -0.228  53.614  1.00  0.00    -0.255 F 
ENDBRANCH  29  30
ENDBRANCH  28  29
ENDBRANCH  26  27
ENDBRANCH  24  26
ENDBRANCH   7  24
TORSDOF 9
ENDMDL
