MODEL 1
REMARK VINA RESULT:      -8.9      0.000      0.000
REMARK  5 active torsions:
REMARK  status: ('A' for Active; 'I' for Inactive)
REMARK    1  A    between atoms: C3_3  and  C4_4 
REMARK    2  A    between atoms: C5_5  and  O1_6 
REMARK    3  A    between atoms: C7_8  and  O2_9 
REMARK    4  A    between atoms: C12_16  and  N3_17 
REMARK    5  A    between atoms: N3_17  and  C13_18 
ROOT
HETATM    1  C1  UNL     1      22.760   3.800  52.119  1.00  0.00     0.012 C 
HETATM    2  C2  UNL     1      22.740   2.620  51.831  1.00  0.00    -0.113 C 
HETATM    3  C3  UNL     1      22.717   1.191  51.475  1.00  0.00     0.135 C 
ENDROOT
BRANCH   3   4
HETATM    4  C4  UNL     1      22.101   0.349  52.491  1.00  0.00     0.005 A 
HETATM    5  C5  UNL     1      20.711   0.112  52.488  1.00  0.00     0.109 A 
HETATM    6  C7  UNL     1      20.007  -0.641  53.380  1.00  0.00     0.104 A 
HETATM    7  C9  UNL     1      20.680  -1.244  54.394  1.00  0.00     0.072 A 
HETATM    8  C10 UNL     1      22.038  -1.068  54.478  1.00  0.00     0.075 A 
HETATM    9  N1  UNL     1      22.743  -1.640  55.480  1.00  0.00    -0.241 NA
HETATM   10  C19 UNL     1      22.685  -0.303  53.556  1.00  0.00     0.049 A 
HETATM   11  C11 UNL     1      24.075  -1.466  55.581  1.00  0.00     0.236 A 
HETATM   12  N2  UNL     1      24.741  -0.711  54.678  1.00  0.00    -0.223 NA
HETATM   13  C12 UNL     1      24.023  -0.141  53.674  1.00  0.00     0.142 A 
BRANCH   5  14
HETATM   14  O1  UNL     1      19.962   0.714  51.457  1.00  0.00    -0.352 OA
HETATM   15  C6  UNL     1      19.249   1.880  51.820  1.00  0.00     0.210 C 
ENDBRANCH   5  14
BRANCH   6  16
HETATM   16  O2  UNL     1      18.638  -0.798  53.268  1.00  0.00    -0.353 OA
HETATM   17  C8  UNL     1      18.102  -2.061  53.626  1.00  0.00     0.210 C 
ENDBRANCH   6  16
BRANCH  13  18
HETATM   18  N3  UNL     1      24.920   0.611  52.852  1.00  0.00    -0.340 N 
HETATM   19  H12 UNL     1      24.754   1.330  52.110  1.00  0.00     0.167 HD
BRANCH  18  20
HETATM   20  C13 UNL     1      26.320   0.317  53.124  1.00  0.00     0.035 A 
HETATM   21  C14 UNL     1      26.870  -0.916  52.803  1.00  0.00     0.032 A 
HETATM   22  C15 UNL     1      28.147  -1.329  52.997  1.00  0.00     0.046 A 
HETATM   23  C16 UNL     1      28.992  -0.393  53.588  1.00  0.00     0.138 A 
HETATM   24  F1  UNL     1      30.284  -0.745  53.811  1.00  0.00    -0.204 F 
HETATM   25  C17 UNL     1      28.520   0.862  53.939  1.00  0.00     0.074 A 
HETATM   26 CL1  UNL     1      29.594   2.038  54.684  1.00  0.00    -0.081 Cl
HETATM   27  C18 UNL     1      27.203   1.201  53.706  1.00  0.00     0.056 A 
ENDBRANCH  18  20
ENDBRANCH  13  18
ENDBRANCH   3   4
TORSDOF 5
ENDMDL
MODEL 2
REMARK VINA RESULT:      -8.7      2.484      4.539
REMARK  5 active torsions:
REMARK  status: ('A' for Active; 'I' for Inactive)
REMARK    1  A    between atoms: C3_3  and  C4_4 
REMARK    2  A    between atoms: C5_5  and  O1_6 
REMARK    3  A    between atoms: C7_8  and  O2_9 
REMARK    4  A    between atoms: C12_16  and  N3_17 
REMARK    5  A    between atoms: N3_17  and  C13_18 
ROOT
HETATM    1  C1  UNL     1      22.768  -0.862  53.451  1.00  0.00     0.012 C 
HETATM    2  C2  UNL     1      22.948   0.327  53.281  1.00  0.00    -0.113 C 
HETATM    3  C3  UNL     1      23.165   1.770  53.082  1.00  0.00     0.135 C 
ENDROOT
BRANCH   3   4
HETATM    4  C4  UNL     1      23.198   2.165  51.682  1.00  0.00     0.005 A 
HETATM    5  C5  UNL     1      22.046   2.064  50.874  1.00  0.00     0.109 A 
HETATM    6  C7  UNL     1      21.941   2.386  49.554  1.00  0.00     0.104 A 
HETATM    7  C9  UNL     1      23.041   2.857  48.911  1.00  0.00     0.072 A 
HETATM    8  C10 UNL     1      24.210   2.988  49.618  1.00  0.00     0.075 A 
HETATM    9  N1  UNL     1      25.331   3.440  49.011  1.00  0.00    -0.241 NA
HETATM   10  C19 UNL     1      24.251   2.649  50.936  1.00  0.00     0.049 A 
HETATM   11  C11 UNL     1      26.488   3.562  49.690  1.00  0.00     0.236 A 
HETATM   12  N2  UNL     1      26.556   3.232  50.999  1.00  0.00    -0.223 NA
HETATM   13  C12 UNL     1      25.423   2.779  51.599  1.00  0.00     0.142 A 
BRANCH   5  14
HETATM   14  O1  UNL     1      20.875   1.581  51.490  1.00  0.00    -0.352 OA
HETATM   15  C6  UNL     1      20.049   2.560  52.088  1.00  0.00     0.210 C 
ENDBRANCH   5  14
BRANCH   6  16
HETATM   16  O2  UNL     1      20.748   2.243  48.870  1.00  0.00    -0.353 OA
HETATM   17  C8  UNL     1      20.126   3.427  48.402  1.00  0.00     0.210 C 
ENDBRANCH   6  16
BRANCH  13  18
HETATM   18  N3  UNL     1      25.726   2.486  52.966  1.00  0.00    -0.340 N 
HETATM   19  H12 UNL     1      25.367   2.886  53.864  1.00  0.00     0.167 HD
BRANCH  18  20
HETATM   20  C13 UNL     1      26.708   1.420  53.114  1.00  0.00     0.035 A 
HETATM   21  C14 UNL     1      27.947   1.662  53.693  1.00  0.00     0.032 A 
HETATM   22  C15 UNL     1      28.952   0.775  53.893  1.00  0.00     0.046 A 
HETATM   23  C16 UNL     1      28.696  -0.524  53.464  1.00  0.00     0.138 A 
HETATM   24  F1  UNL     1      29.665  -1.459  53.635  1.00  0.00    -0.204 F 
HETATM   25  C17 UNL     1      27.483  -0.847  52.874  1.00  0.00     0.074 A 
HETATM   26 CL1  UNL     1      27.168  -2.490  52.334  1.00  0.00    -0.081 Cl
HETATM   27  C18 UNL     1      26.512   0.118  52.707  1.00  0.00     0.056 A 
ENDBRANCH  18  20
ENDBRANCH  13  18
ENDBRANCH   3   4
TORSDOF 5
ENDMDL
MODEL 3
REMARK VINA RESULT:      -8.7      1.879      3.773
REMARK  5 active torsions:
REMARK  status: ('A' for Active; 'I' for Inactive)
REMARK    1  A    between atoms: C3_3  and  C4_4 
REMARK    2  A    between atoms: C5_5  and  O1_6 
REMARK    3  A    between atoms: C7_8  and  O2_9 
REMARK    4  A    between atoms: C12_16  and  N3_17 
REMARK    5  A    between atoms: N3_17  and  C13_18 
ROOT
HETATM    1  C1  UNL     1      22.469  -1.092  55.117  1.00  0.00     0.012 C 
HETATM    2  C2  UNL     1      22.355  -0.795  53.945  1.00  0.00    -0.113 C 
HETATM    3  C3  UNL     1      22.219  -0.441  52.522  1.00  0.00     0.135 C 
ENDROOT
BRANCH   3   4
HETATM    4  C4  UNL     1      22.011   0.982  52.295  1.00  0.00     0.005 A 
HETATM    5  C5  UNL     1      20.731   1.557  52.431  1.00  0.00     0.109 A 
HETATM    6  C7  UNL     1      20.395   2.864  52.238  1.00  0.00     0.104 A 
HETATM    7  C9  UNL     1      21.369   3.738  51.874  1.00  0.00     0.072 A 
HETATM    8  C10 UNL     1      22.649   3.267  51.716  1.00  0.00     0.075 A 
HETATM    9  N1  UNL     1      23.645   4.101  51.342  1.00  0.00    -0.241 NA
HETATM   10  C19 UNL     1      22.921   1.949  51.924  1.00  0.00     0.049 A 
HETATM   11  C11 UNL     1      24.903   3.651  51.172  1.00  0.00     0.236 A 
HETATM   12  N2  UNL     1      25.199   2.347  51.372  1.00  0.00    -0.223 NA
HETATM   13  C12 UNL     1      24.191   1.517  51.748  1.00  0.00     0.142 A 
BRANCH   5  14
HETATM   14  O1  UNL     1      19.681   0.696  52.807  1.00  0.00    -0.352 OA
HETATM   15  C6  UNL     1      18.970   0.097  51.741  1.00  0.00     0.210 C 
ENDBRANCH   5  14
BRANCH   6  16
HETATM   16  O2  UNL     1      19.096   3.306  52.405  1.00  0.00    -0.353 OA
HETATM   17  C8  UNL     1      18.433   3.812  51.259  1.00  0.00     0.210 C 
ENDBRANCH   6  16
BRANCH  13  18
HETATM   18  N3  UNL     1      24.725   0.198  51.892  1.00  0.00    -0.340 N 
HETATM   19  H12 UNL     1      24.467  -0.715  51.451  1.00  0.00     0.167 HD
BRANCH  18  20
HETATM   20  C13 UNL     1      25.848   0.138  52.819  1.00  0.00     0.035 A 
HETATM   21  C14 UNL     1      25.790   0.766  54.056  1.00  0.00     0.032 A 
HETATM   22  C15 UNL     1      26.750   0.797  55.013  1.00  0.00     0.046 A 
HETATM   23  C16 UNL     1      27.922   0.114  54.703  1.00  0.00     0.138 A 
HETATM   24  F1  UNL     1      28.924   0.108  55.620  1.00  0.00    -0.204 F 
HETATM   25  C17 UNL     1      28.059  -0.539  53.488  1.00  0.00     0.074 A 
HETATM   26 CL1  UNL     1      29.544  -1.400  53.104  1.00  0.00    -0.081 Cl
HETATM   27  C18 UNL     1      27.032  -0.521  52.568  1.00  0.00     0.056 A 
ENDBRANCH  18  20
ENDBRANCH  13  18
ENDBRANCH   3   4
TORSDOF 5
ENDMDL
MODEL 4
REMARK VINA RESULT:      -8.3      2.732      4.040
REMARK  5 active torsions:
REMARK  status: ('A' for Active; 'I' for Inactive)
REMARK    1  A    between atoms: C3_3  and  C4_4 
REMARK    2  A    between atoms: C5_5  and  O1_6 
REMARK    3  A    between atoms: C7_8  and  O2_9 
REMARK    4  A    between atoms: C12_16  and  N3_17 
REMARK    5  A    between atoms: N3_17  and  C13_18 
ROOT
HETATM    1  C1  UNL     1      26.775   3.230  49.423  1.00  0.00     0.012 C 
HETATM    2  C2  UNL     1      25.793   3.409  50.114  1.00  0.00    -0.113 C 
HETATM    3  C3  UNL     1      24.606   3.629  50.957  1.00  0.00     0.135 C 
ENDROOT
BRANCH   3   4
HETATM    4  C4  UNL     1      23.496   2.742  50.641  1.00  0.00     0.005 A 
HETATM    5  C5  UNL     1      22.765   2.896  49.444  1.00  0.00     0.109 A 
HETATM    6  C7  UNL     1      21.703   2.149  49.031  1.00  0.00     0.104 A 
HETATM    7  C9  UNL     1      21.271   1.138  49.830  1.00  0.00     0.072 A 
HETATM    8  C10 UNL     1      21.922   0.914  51.017  1.00  0.00     0.075 A 
HETATM    9  N1  UNL     1      21.515  -0.074  51.846  1.00  0.00    -0.241 NA
HETATM   10  C19 UNL     1      22.978   1.696  51.374  1.00  0.00     0.049 A 
HETATM   11  C11 UNL     1      22.137  -0.297  53.020  1.00  0.00     0.236 A 
HETATM   12  N2  UNL     1      23.188   0.466  53.397  1.00  0.00    -0.223 NA
HETATM   13  C12 UNL     1      23.589   1.455  52.556  1.00  0.00     0.142 A 
BRANCH   5  14
HETATM   14  O1  UNL     1      23.170   3.931  48.578  1.00  0.00    -0.352 OA
HETATM   15  C6  UNL     1      22.541   5.180  48.781  1.00  0.00     0.210 C 
ENDBRANCH   5  14
BRANCH   6  16
HETATM   16  O2  UNL     1      21.069   2.400  47.830  1.00  0.00    -0.353 OA
HETATM   17  C8  UNL     1      19.726   2.852  47.890  1.00  0.00     0.210 C 
ENDBRANCH   6  16
BRANCH  13  18
HETATM   18  N3  UNL     1      24.698   2.131  53.156  1.00  0.00    -0.340 N 
HETATM   19  H12 UNL     1      24.790   3.082  53.585  1.00  0.00     0.167 HD
BRANCH  18  20
HETATM   20  C13 UNL     1      25.911   1.325  53.177  1.00  0.00     0.035 A 
HETATM   21  C14 UNL     1      27.121   1.860  53.599  1.00  0.00     0.032 A 
HETATM   22  C15 UNL     1      28.321   1.234  53.670  1.00  0.00     0.046 A 
HETATM   23  C16 UNL     1      28.323  -0.099  53.270  1.00  0.00     0.138 A 
HETATM   24  F1  UNL     1      29.496  -0.782  53.317  1.00  0.00    -0.204 F 
HETATM   25  C17 UNL     1      27.156  -0.708  52.835  1.00  0.00     0.074 A 
HETATM   26 CL1  UNL     1      27.167  -2.393  52.333  1.00  0.00    -0.081 Cl
HETATM   27  C18 UNL     1      25.975   0.002  52.793  1.00  0.00     0.056 A 
ENDBRANCH  18  20
ENDBRANCH  13  18
ENDBRANCH   3   4
TORSDOF 5
ENDMDL
MODEL 5
REMARK VINA RESULT:      -8.2      4.617      6.918
REMARK  5 active torsions:
REMARK  status: ('A' for Active; 'I' for Inactive)
REMARK    1  A    between atoms: C3_3  and  C4_4 
REMARK    2  A    between atoms: C5_5  and  O1_6 
REMARK    3  A    between atoms: C7_8  and  O2_9 
REMARK    4  A    between atoms: C12_16  and  N3_17 
REMARK    5  A    between atoms: N3_17  and  C13_18 
ROOT
HETATM    1  C1  UNL     1      26.436   3.066  49.500  1.00  0.00     0.012 C 
HETATM    2  C2  UNL     1      26.062   3.069  50.655  1.00  0.00    -0.113 C 
HETATM    3  C3  UNL     1      25.609   3.080  52.056  1.00  0.00     0.135 C 
ENDROOT
BRANCH   3   4
HETATM    4  C4  UNL     1      25.553   1.756  52.659  1.00  0.00     0.005 A 
HETATM    5  C5  UNL     1      26.734   1.030  52.920  1.00  0.00     0.109 A 
HETATM    6  C7  UNL     1      26.825  -0.216  53.465  1.00  0.00     0.104 A 
HETATM    7  C9  UNL     1      25.679  -0.860  53.809  1.00  0.00     0.072 A 
HETATM    8  C10 UNL     1      24.480  -0.229  53.590  1.00  0.00     0.075 A 
HETATM    9  N1  UNL     1      23.317  -0.841  53.905  1.00  0.00    -0.241 NA
HETATM   10  C19 UNL     1      24.455   1.016  53.041  1.00  0.00     0.049 A 
HETATM   11  C11 UNL     1      22.132  -0.239  53.686  1.00  0.00     0.236 A 
HETATM   12  N2  UNL     1      22.079   0.997  53.141  1.00  0.00    -0.223 NA
HETATM   13  C12 UNL     1      23.255   1.604  52.828  1.00  0.00     0.142 A 
BRANCH   5  14
HETATM   14  O1  UNL     1      27.953   1.650  52.583  1.00  0.00    -0.352 OA
HETATM   15  C6  UNL     1      28.579   2.375  53.623  1.00  0.00     0.210 C 
ENDBRANCH   5  14
BRANCH   6  16
HETATM   16  O2  UNL     1      28.049  -0.824  53.673  1.00  0.00    -0.353 OA
HETATM   17  C8  UNL     1      28.299  -2.030  52.970  1.00  0.00     0.210 C 
ENDBRANCH   6  16
BRANCH  13  18
HETATM   18  N3  UNL     1      22.963   2.885  52.263  1.00  0.00    -0.340 N 
HETATM   19  H12 UNL     1      23.208   3.856  52.566  1.00  0.00     0.167 HD
BRANCH  18  20
HETATM   20  C13 UNL     1      22.191   2.799  51.031  1.00  0.00     0.035 A 
HETATM   21  C14 UNL     1      22.631   2.030  49.961  1.00  0.00     0.032 A 
HETATM   22  C15 UNL     1      22.024   1.858  48.762  1.00  0.00     0.046 A 
HETATM   23  C16 UNL     1      20.820   2.538  48.600  1.00  0.00     0.138 A 
HETATM   24  F1  UNL     1      20.163   2.408  47.419  1.00  0.00    -0.204 F 
HETATM   25  C17 UNL     1      20.312   3.327  49.621  1.00  0.00     0.074 A 
HETATM   26 CL1  UNL     1      18.790   4.182  49.409  1.00  0.00    -0.081 Cl
HETATM   27  C18 UNL     1      20.995   3.448  50.812  1.00  0.00     0.056 A 
ENDBRANCH  18  20
ENDBRANCH  13  18
ENDBRANCH   3   4
TORSDOF 5
ENDMDL
MODEL 6
REMARK VINA RESULT:      -8.0      4.599      7.455
REMARK  5 active torsions:
REMARK  status: ('A' for Active; 'I' for Inactive)
REMARK    1  A    between atoms: C3_3  and  C4_4 
REMARK    2  A    between atoms: C5_5  and  O1_6 
REMARK    3  A    between atoms: C7_8  and  O2_9 
REMARK    4  A    between atoms: C12_16  and  N3_17 
REMARK    5  A    between atoms: N3_17  and  C13_18 
ROOT
HETATM    1  C1  UNL     1      21.281  -0.182  54.845  1.00  0.00     0.012 C 
HETATM    2  C2  UNL     1      22.165  -0.485  54.069  1.00  0.00    -0.113 C 
HETATM    3  C3  UNL     1      23.233  -0.859  53.127  1.00  0.00     0.135 C 
ENDROOT
BRANCH   3   4
HETATM    4  C4  UNL     1      24.357   0.065  53.126  1.00  0.00     0.005 A 
HETATM    5  C5  UNL     1      25.411  -0.078  54.053  1.00  0.00     0.109 A 
HETATM    6  C7  UNL     1      26.511   0.718  54.171  1.00  0.00     0.104 A 
HETATM    7  C9  UNL     1      26.644   1.772  53.324  1.00  0.00     0.072 A 
HETATM    8  C10 UNL     1      25.664   1.991  52.388  1.00  0.00     0.075 A 
HETATM    9  N1  UNL     1      25.752   3.037  51.535  1.00  0.00    -0.241 NA
HETATM   10  C19 UNL     1      24.588   1.160  52.320  1.00  0.00     0.049 A 
HETATM   11  C11 UNL     1      24.792   3.270  50.620  1.00  0.00     0.236 A 
HETATM   12  N2  UNL     1      23.713   2.460  50.532  1.00  0.00    -0.223 NA
HETATM   13  C12 UNL     1      23.635   1.411  51.394  1.00  0.00     0.142 A 
BRANCH   5  14
HETATM   14  O1  UNL     1      25.326  -1.155  54.956  1.00  0.00    -0.352 OA
HETATM   15  C6  UNL     1      24.952  -0.817  56.277  1.00  0.00     0.210 C 
ENDBRANCH   5  14
BRANCH   6  16
HETATM   16  O2  UNL     1      27.481   0.471  55.124  1.00  0.00    -0.353 OA
HETATM   17  C8  UNL     1      28.794   0.211  54.658  1.00  0.00     0.210 C 
ENDBRANCH   6  16
BRANCH  13  18
HETATM   18  N3  UNL     1      22.421   0.703  51.130  1.00  0.00    -0.340 N 
HETATM   19  H12 UNL     1      22.228  -0.305  50.924  1.00  0.00     0.167 HD
BRANCH  18  20
HETATM   20  C13 UNL     1      21.243   1.559  51.176  1.00  0.00     0.035 A 
HETATM   21  C14 UNL     1      21.073   2.491  52.191  1.00  0.00     0.032 A 
HETATM   22  C15 UNL     1      20.036   3.348  52.361  1.00  0.00     0.046 A 
HETATM   23  C16 UNL     1      19.035   3.271  51.398  1.00  0.00     0.138 A 
HETATM   24  F1  UNL     1      17.968   4.102  51.513  1.00  0.00    -0.204 F 
HETATM   25  C17 UNL     1      19.130   2.366  50.351  1.00  0.00     0.074 A 
HETATM   26 CL1  UNL     1      17.860   2.276  49.138  1.00  0.00    -0.081 Cl
HETATM   27  C18 UNL     1      20.220   1.529  50.252  1.00  0.00     0.056 A 
ENDBRANCH  18  20
ENDBRANCH  13  18
ENDBRANCH   3   4
TORSDOF 5
ENDMDL
MODEL 7
REMARK VINA RESULT:      -7.8      4.489      7.042
REMARK  5 active torsions:
REMARK  status: ('A' for Active; 'I' for Inactive)
REMARK    1  A    between atoms: C3_3  and  C4_4 
REMARK    2  A    between atoms: C5_5  and  O1_6 
REMARK    3  A    between atoms: C7_8  and  O2_9 
REMARK    4  A    between atoms: C12_16  and  N3_17 
REMARK    5  A    between atoms: N3_17  and  C13_18 
ROOT
HETATM    1  C1  UNL     1      23.491   4.838  52.531  1.00  0.00     0.012 C 
HETATM    2  C2  UNL     1      23.335   3.732  52.055  1.00  0.00    -0.113 C 
HETATM    3  C3  UNL     1      23.142   2.393  51.473  1.00  0.00     0.135 C 
ENDROOT
BRANCH   3   4
HETATM    4  C4  UNL     1      23.786   1.331  52.232  1.00  0.00     0.005 A 
HETATM    5  C5  UNL     1      25.142   1.009  52.017  1.00  0.00     0.109 A 
HETATM    6  C7  UNL     1      25.863   0.037  52.644  1.00  0.00     0.104 A 
HETATM    7  C9  UNL     1      25.244  -0.725  53.584  1.00  0.00     0.072 A 
HETATM    8  C10 UNL     1      23.922  -0.484  53.859  1.00  0.00     0.075 A 
HETATM    9  N1  UNL     1      23.266  -1.228  54.778  1.00  0.00    -0.241 NA
HETATM   10  C19 UNL     1      23.256   0.503  53.198  1.00  0.00     0.049 A 
HETATM   11  C11 UNL     1      21.965  -1.010  55.050  1.00  0.00     0.236 A 
HETATM   12  N2  UNL     1      21.281  -0.037  54.407  1.00  0.00    -0.223 NA
HETATM   13  C12 UNL     1      21.950   0.706  53.486  1.00  0.00     0.142 A 
BRANCH   5  14
HETATM   14  O1  UNL     1      25.834   1.768  51.052  1.00  0.00    -0.352 OA
HETATM   15  C6  UNL     1      26.779   2.688  51.560  1.00  0.00     0.210 C 
ENDBRANCH   5  14
BRANCH   6  16
HETATM   16  O2  UNL     1      27.194  -0.181  52.343  1.00  0.00    -0.353 OA
HETATM   17  C8  UNL     1      28.089  -0.314  53.434  1.00  0.00     0.210 C 
ENDBRANCH   6  16
BRANCH  13  18
HETATM   18  N3  UNL     1      21.039   1.659  52.931  1.00  0.00    -0.340 N 
HETATM   19  H12 UNL     1      21.014   2.705  52.963  1.00  0.00     0.167 HD
BRANCH  18  20
HETATM   20  C13 UNL     1      19.961   1.039  52.173  1.00  0.00     0.035 A 
HETATM   21  C14 UNL     1      19.719   1.390  50.851  1.00  0.00     0.032 A 
HETATM   22  C15 UNL     1      18.759   0.901  50.029  1.00  0.00     0.046 A 
HETATM   23  C16 UNL     1      17.928  -0.064  50.589  1.00  0.00     0.138 A 
HETATM   24  F1  UNL     1      16.944  -0.592  49.817  1.00  0.00    -0.204 F 
HETATM   25  C17 UNL     1      18.103  -0.470  51.904  1.00  0.00     0.074 A 
HETATM   26 CL1  UNL     1      17.049  -1.690  52.605  1.00  0.00    -0.081 Cl
HETATM   27  C18 UNL     1      19.107   0.080  52.674  1.00  0.00     0.056 A 
ENDBRANCH  18  20
ENDBRANCH  13  18
ENDBRANCH   3   4
TORSDOF 5
ENDMDL
MODEL 8
REMARK VINA RESULT:      -7.7      3.997      5.773
REMARK  5 active torsions:
REMARK  status: ('A' for Active; 'I' for Inactive)
REMARK    1  A    between atoms: C3_3  and  C4_4 
REMARK    2  A    between atoms: C5_5  and  O1_6 
REMARK    3  A    between atoms: C7_8  and  O2_9 
REMARK    4  A    between atoms: C12_16  and  N3_17 
REMARK    5  A    between atoms: N3_17  and  C13_18 
ROOT
HETATM    1  C1  UNL     1      26.809   4.299  49.250  1.00  0.00     0.012 C 
HETATM    2  C2  UNL     1      25.675   4.485  49.644  1.00  0.00    -0.113 C 
HETATM    3  C3  UNL     1      24.303   4.712  50.129  1.00  0.00     0.135 C 
ENDROOT
BRANCH   3   4
HETATM    4  C4  UNL     1      23.286   4.045  49.328  1.00  0.00     0.005 A 
HETATM    5  C5  UNL     1      22.870   4.584  48.093  1.00  0.00     0.109 A 
HETATM    6  C7  UNL     1      21.926   4.073  47.254  1.00  0.00     0.104 A 
HETATM    7  C9  UNL     1      21.295   2.923  47.609  1.00  0.00     0.072 A 
HETATM    8  C10 UNL     1      21.635   2.327  48.798  1.00  0.00     0.075 A 
HETATM    9  N1  UNL     1      21.021   1.190  49.195  1.00  0.00    -0.241 NA
HETATM   10  C19 UNL     1      22.587   2.887  49.594  1.00  0.00     0.049 A 
HETATM   11  C11 UNL     1      21.337   0.600  50.364  1.00  0.00     0.236 A 
HETATM   12  N2  UNL     1      22.279   1.137  51.173  1.00  0.00    -0.223 NA
HETATM   13  C12 UNL     1      22.890   2.280  50.764  1.00  0.00     0.142 A 
BRANCH   5  14
HETATM   14  O1  UNL     1      23.491   5.777  47.674  1.00  0.00    -0.352 OA
HETATM   15  C6  UNL     1      22.826   6.971  48.033  1.00  0.00     0.210 C 
ENDBRANCH   5  14
BRANCH   6  16
HETATM   16  O2  UNL     1      21.606   4.697  46.063  1.00  0.00    -0.353 OA
HETATM   17  C8  UNL     1      21.466   3.873  44.918  1.00  0.00     0.210 C 
ENDBRANCH   6  16
BRANCH  13  18
HETATM   18  N3  UNL     1      23.833   2.668  51.767  1.00  0.00    -0.340 N 
HETATM   19  H12 UNL     1      24.026   3.587  52.229  1.00  0.00     0.167 HD
BRANCH  18  20
HETATM   20  C13 UNL     1      24.657   1.560  52.230  1.00  0.00     0.035 A 
HETATM   21  C14 UNL     1      25.802   1.181  51.541  1.00  0.00     0.032 A 
HETATM   22  C15 UNL     1      26.658   0.177  51.850  1.00  0.00     0.046 A 
HETATM   23  C16 UNL     1      26.339  -0.548  52.995  1.00  0.00     0.138 A 
HETATM   24  F1  UNL     1      27.157  -1.569  53.358  1.00  0.00    -0.204 F 
HETATM   25  C17 UNL     1      25.212  -0.233  53.739  1.00  0.00     0.074 A 
HETATM   26 CL1  UNL     1      24.816  -1.153  55.184  1.00  0.00    -0.081 Cl
HETATM   27  C18 UNL     1      24.392   0.806  53.353  1.00  0.00     0.056 A 
ENDBRANCH  18  20
ENDBRANCH  13  18
ENDBRANCH   3   4
TORSDOF 5
ENDMDL
MODEL 9
REMARK VINA RESULT:      -7.5      4.770      6.746
REMARK  5 active torsions:
REMARK  status: ('A' for Active; 'I' for Inactive)
REMARK    1  A    between atoms: C3_3  and  C4_4 
REMARK    2  A    between atoms: C5_5  and  O1_6 
REMARK    3  A    between atoms: C7_8  and  O2_9 
REMARK    4  A    between atoms: C12_16  and  N3_17 
REMARK    5  A    between atoms: N3_17  and  C13_18 
ROOT
HETATM    1  C1  UNL     1      26.327   3.039  49.911  1.00  0.00     0.012 C 
HETATM    2  C2  UNL     1      25.604   3.120  50.884  1.00  0.00    -0.113 C 
HETATM    3  C3  UNL     1      24.730   3.227  52.064  1.00  0.00     0.135 C 
ENDROOT
BRANCH   3   4
HETATM    4  C4  UNL     1      24.180   1.950  52.496  1.00  0.00     0.005 A 
HETATM    5  C5  UNL     1      24.958   1.045  53.249  1.00  0.00     0.109 A 
HETATM    6  C7  UNL     1      24.575  -0.180  53.705  1.00  0.00     0.104 A 
HETATM    7  C9  UNL     1      23.317  -0.613  53.427  1.00  0.00     0.072 A 
HETATM    8  C10 UNL     1      22.488   0.202  52.697  1.00  0.00     0.075 A 
HETATM    9  N1  UNL     1      21.234  -0.197  52.387  1.00  0.00    -0.241 NA
HETATM   10  C19 UNL     1      22.930   1.416  52.269  1.00  0.00     0.049 A 
HETATM   11  C11 UNL     1      20.414   0.587  51.662  1.00  0.00     0.236 A 
HETATM   12  N2  UNL     1      20.828   1.797  51.224  1.00  0.00    -0.223 NA
HETATM   13  C12 UNL     1      22.091   2.189  51.542  1.00  0.00     0.142 A 
BRANCH   5  14
HETATM   14  O1  UNL     1      26.271   1.443  53.566  1.00  0.00    -0.352 OA
HETATM   15  C6  UNL     1      27.297   0.809  52.829  1.00  0.00     0.210 C 
ENDBRANCH   5  14
BRANCH   6  16
HETATM   16  O2  UNL     1      25.434  -0.977  54.438  1.00  0.00    -0.353 OA
HETATM   17  C8  UNL     1      25.219  -1.042  55.838  1.00  0.00     0.210 C 
ENDBRANCH   6  16
BRANCH  13  18
HETATM   18  N3  UNL     1      22.315   3.483  50.974  1.00  0.00    -0.340 N 
HETATM   19  H12 UNL     1      22.553   4.405  51.407  1.00  0.00     0.167 HD
BRANCH  18  20
HETATM   20  C13 UNL     1      22.199   3.493  49.522  1.00  0.00     0.035 A 
HETATM   21  C14 UNL     1      22.638   2.420  48.760  1.00  0.00     0.032 A 
HETATM   22  C15 UNL     1      22.596   2.292  47.411  1.00  0.00     0.046 A 
HETATM   23  C16 UNL     1      22.045   3.371  46.727  1.00  0.00     0.138 A 
HETATM   24  F1  UNL     1      21.975   3.305  45.372  1.00  0.00    -0.204 F 
HETATM   25  C17 UNL     1      21.582   4.482  47.415  1.00  0.00     0.074 A 
HETATM   26 CL1  UNL     1      20.887   5.841  46.543  1.00  0.00    -0.081 Cl
HETATM   27  C18 UNL     1      21.663   4.532  48.791  1.00  0.00     0.056 A 
ENDBRANCH  18  20
ENDBRANCH  13  18
ENDBRANCH   3   4
TORSDOF 5
ENDMDL
