MODEL 1
REMARK VINA RESULT:      -7.7      0.000      0.000
REMARK  3 active torsions:
REMARK  status: ('A' for Active; 'I' for Inactive)
REMARK       I    between atoms: C1_2  and  N1_3 
REMARK    1  A    between atoms: C1_2  and  C8_14 
REMARK    2  A    between atoms: N1_3  and  S1_4 
REMARK    3  A    between atoms: S1_4  and  C2_7 
ROOT
HETATM    1  O1  UNL     1      26.231   1.713  50.841  1.00  0.00    -0.267 OA
HETATM    2  C1  UNL     1      26.165   2.017  52.072  1.00  0.00     0.268 C 
HETATM    3  N1  UNL     1      25.367   3.209  52.255  1.00  0.00    -0.246 N 
HETATM    4  H1  UNL     1      25.244   3.536  53.243  1.00  0.00     0.182 HD
ENDROOT
BRANCH   3   5
HETATM    5  S1  UNL     1      24.692   3.975  50.876  1.00  0.00     0.265 S 
HETATM    6  O2  UNL     1      23.927   2.903  50.108  1.00  0.00    -0.200 OA
HETATM    7  O3  UNL     1      23.597   4.958  51.296  1.00  0.00    -0.200 OA
BRANCH   5   8
HETATM    8  C2  UNL     1      25.852   4.785  49.867  1.00  0.00     0.080 A 
HETATM    9  C3  UNL     1      26.939   4.236  49.229  1.00  0.00     0.027 A 
HETATM   10  C4  UNL     1      27.799   5.031  48.470  1.00  0.00     0.020 A 
HETATM   11  C5  UNL     1      27.538   6.385  48.374  1.00  0.00     0.011 A 
HETATM   12 BR1  UNL     1      28.754   7.408  47.311  1.00  0.00    -0.051 Br
HETATM   13  C6  UNL     1      26.452   6.976  49.004  1.00  0.00     0.020 A 
HETATM   14  C7  UNL     1      25.606   6.158  49.756  1.00  0.00     0.027 A 
ENDBRANCH   5   8
ENDBRANCH   3   5
BRANCH   2  15
HETATM   15  C8  UNL     1      26.812   1.257  53.132  1.00  0.00     0.069 A 
HETATM   16  C9  UNL     1      28.120   1.765  53.228  1.00  0.00     0.021 A 
HETATM   17  C10 UNL     1      29.022   1.244  54.172  1.00  0.00     0.020 A 
HETATM   18  C11 UNL     1      28.596   0.212  55.013  1.00  0.00     0.118 A 
HETATM   19  N2  UNL     1      27.352  -0.226  54.874  1.00  0.00    -0.253 NA
HETATM   20  C12 UNL     1      26.449   0.237  53.988  1.00  0.00     0.118 A 
HETATM   21 BR2  UNL     1      24.650  -0.280  53.661  1.00  0.00    -0.028 Br
ENDBRANCH   2  15
TORSDOF 3
ENDMDL
MODEL 2
REMARK VINA RESULT:      -7.7      2.463      6.522
REMARK  3 active torsions:
REMARK  status: ('A' for Active; 'I' for Inactive)
REMARK       I    between atoms: C1_2  and  N1_3 
REMARK    1  A    between atoms: C1_2  and  C8_14 
REMARK    2  A    between atoms: N1_3  and  S1_4 
REMARK    3  A    between atoms: S1_4  and  C2_7 
ROOT
HETATM    1  O1  UNL     1      25.812   2.981  49.331  1.00  0.00    -0.267 OA
HETATM    2  C1  UNL     1      25.920   4.156  49.799  1.00  0.00     0.268 C 
HETATM    3  N1  UNL     1      25.457   4.199  51.169  1.00  0.00    -0.246 N 
HETATM    4  H1  UNL     1      25.516   5.129  51.648  1.00  0.00     0.182 HD
ENDROOT
BRANCH   3   5
HETATM    5  S1  UNL     1      24.867   2.758  51.890  1.00  0.00     0.265 S 
HETATM    6  O2  UNL     1      24.060   3.178  53.113  1.00  0.00    -0.200 OA
HETATM    7  O3  UNL     1      23.824   2.099  50.987  1.00  0.00    -0.200 OA
BRANCH   5   8
HETATM    8  C2  UNL     1      26.102   1.605  52.299  1.00  0.00     0.080 A 
HETATM    9  C3  UNL     1      26.041   0.235  52.194  1.00  0.00     0.027 A 
HETATM   10  C4  UNL     1      27.116  -0.560  52.592  1.00  0.00     0.020 A 
HETATM   11  C5  UNL     1      28.246   0.056  53.096  1.00  0.00     0.011 A 
HETATM   12 BR1  UNL     1      29.680  -1.097  53.613  1.00  0.00    -0.051 Br
HETATM   13  C6  UNL     1      28.344   1.435  53.219  1.00  0.00     0.020 A 
HETATM   14  C7  UNL     1      27.255   2.209  52.813  1.00  0.00     0.027 A 
ENDBRANCH   5   8
ENDBRANCH   3   5
BRANCH   2  15
HETATM   15  C8  UNL     1      26.439   5.287  49.043  1.00  0.00     0.069 A 
HETATM   16  C9  UNL     1      27.804   5.017  48.834  1.00  0.00     0.021 A 
HETATM   17  C10 UNL     1      28.610   5.922  48.121  1.00  0.00     0.020 A 
HETATM   18  C11 UNL     1      28.032   7.094  47.625  1.00  0.00     0.118 A 
HETATM   19  N2  UNL     1      26.741   7.293  47.856  1.00  0.00    -0.253 NA
HETATM   20  C12 UNL     1      25.925   6.461  48.530  1.00  0.00     0.118 A 
HETATM   21 BR2  UNL     1      24.076   6.600  48.947  1.00  0.00    -0.028 Br
ENDBRANCH   2  15
TORSDOF 3
ENDMDL
MODEL 3
REMARK VINA RESULT:      -7.4      1.697      2.233
REMARK  3 active torsions:
REMARK  status: ('A' for Active; 'I' for Inactive)
REMARK       I    between atoms: C1_2  and  N1_3 
REMARK    1  A    between atoms: C1_2  and  C8_14 
REMARK    2  A    between atoms: N1_3  and  S1_4 
REMARK    3  A    between atoms: S1_4  and  C2_7 
ROOT
HETATM    1  O1  UNL     1      24.860   3.134  53.538  1.00  0.00    -0.267 OA
HETATM    2  C1  UNL     1      25.461   2.167  52.976  1.00  0.00     0.268 C 
HETATM    3  N1  UNL     1      24.971   1.984  51.628  1.00  0.00    -0.246 N 
HETATM    4  H1  UNL     1      25.415   1.212  51.075  1.00  0.00     0.182 HD
ENDROOT
BRANCH   3   5
HETATM    5  S1  UNL     1      23.735   3.023  51.046  1.00  0.00     0.265 S 
HETATM    6  O2  UNL     1      23.219   2.409  49.750  1.00  0.00    -0.200 OA
HETATM    7  O3  UNL     1      22.518   2.973  51.971  1.00  0.00    -0.200 OA
BRANCH   5   8
HETATM    8  C2  UNL     1      24.235   4.673  50.822  1.00  0.00     0.080 A 
HETATM    9  C3  UNL     1      23.691   5.801  51.392  1.00  0.00     0.027 A 
HETATM   10  C4  UNL     1      24.192   7.067  51.087  1.00  0.00     0.020 A 
HETATM   11  C5  UNL     1      25.247   7.167  50.199  1.00  0.00     0.011 A 
HETATM   12 BR1  UNL     1      25.884   8.932  49.837  1.00  0.00    -0.051 Br
HETATM   13  C6  UNL     1      25.820   6.053  49.603  1.00  0.00     0.020 A 
HETATM   14  C7  UNL     1      25.302   4.797  49.925  1.00  0.00     0.027 A 
ENDBRANCH   5   8
ENDBRANCH   3   5
BRANCH   2  15
HETATM   15  C8  UNL     1      26.494   1.368  53.620  1.00  0.00     0.069 A 
HETATM   16  C9  UNL     1      27.688   2.100  53.485  1.00  0.00     0.021 A 
HETATM   17  C10 UNL     1      28.894   1.604  54.009  1.00  0.00     0.020 A 
HETATM   18  C11 UNL     1      28.886   0.370  54.667  1.00  0.00     0.118 A 
HETATM   19  N2  UNL     1      27.730  -0.274  54.761  1.00  0.00    -0.253 NA
HETATM   20  C12 UNL     1      26.549   0.156  54.278  1.00  0.00     0.118 A 
HETATM   21 BR2  UNL     1      24.823  -0.639  54.323  1.00  0.00    -0.028 Br
ENDBRANCH   2  15
TORSDOF 3
ENDMDL
MODEL 4
REMARK VINA RESULT:      -7.4      2.535      3.142
REMARK  3 active torsions:
REMARK  status: ('A' for Active; 'I' for Inactive)
REMARK       I    between atoms: C1_2  and  N1_3 
REMARK    1  A    between atoms: C1_2  and  C8_14 
REMARK    2  A    between atoms: N1_3  and  S1_4 
REMARK    3  A    between atoms: S1_4  and  C2_7 
ROOT
HETATM    1  O1  UNL     1      24.115   3.574  52.260  1.00  0.00    -0.267 OA
HETATM    2  C1  UNL     1      23.644   2.470  51.846  1.00  0.00     0.268 C 
HETATM    3  N1  UNL     1      23.154   2.607  50.492  1.00  0.00    -0.246 N 
HETATM    4  H1  UNL     1      22.753   1.742  50.056  1.00  0.00     0.182 HD
ENDROOT
BRANCH   3   5
HETATM    5  S1  UNL     1      23.271   4.133  49.717  1.00  0.00     0.265 S 
HETATM    6  O2  UNL     1      22.357   4.079  48.499  1.00  0.00    -0.200 OA
HETATM    7  O3  UNL     1      22.639   5.222  50.586  1.00  0.00    -0.200 OA
BRANCH   5   8
HETATM    8  C2  UNL     1      24.891   4.594  49.285  1.00  0.00     0.080 A 
HETATM    9  C3  UNL     1      26.033   3.832  49.371  1.00  0.00     0.027 A 
HETATM   10  C4  UNL     1      27.272   4.360  49.008  1.00  0.00     0.020 A 
HETATM   11  C5  UNL     1      27.331   5.666  48.560  1.00  0.00     0.011 A 
HETATM   12 BR1  UNL     1      29.061   6.316  48.073  1.00  0.00    -0.051 Br
HETATM   13  C6  UNL     1      26.202   6.466  48.460  1.00  0.00     0.020 A 
HETATM   14  C7  UNL     1      24.973   5.914  48.829  1.00  0.00     0.027 A 
ENDBRANCH   5   8
ENDBRANCH   3   5
BRANCH   2  15
HETATM   15  C8  UNL     1      23.610   1.252  52.642  1.00  0.00     0.069 A 
HETATM   16  C9  UNL     1      22.293   1.142  53.125  1.00  0.00     0.021 A 
HETATM   17  C10 UNL     1      21.917   0.058  53.936  1.00  0.00     0.020 A 
HETATM   18  C11 UNL     1      22.875  -0.908  54.257  1.00  0.00     0.118 A 
HETATM   19  N2  UNL     1      24.100  -0.749  53.774  1.00  0.00    -0.253 NA
HETATM   20  C12 UNL     1      24.512   0.268  52.993  1.00  0.00     0.118 A 
HETATM   21 BR2  UNL     1      26.213   0.641  52.232  1.00  0.00    -0.028 Br
ENDBRANCH   2  15
TORSDOF 3
ENDMDL
MODEL 5
REMARK VINA RESULT:      -7.4      3.999      5.249
REMARK  3 active torsions:
REMARK  status: ('A' for Active; 'I' for Inactive)
REMARK       I    between atoms: C1_2  and  N1_3 
REMARK    1  A    between atoms: C1_2  and  C8_14 
REMARK    2  A    between atoms: N1_3  and  S1_4 
REMARK    3  A    between atoms: S1_4  and  C2_7 
ROOT
HETATM    1  O1  UNL     1      24.590   2.826  53.511  1.00  0.00    -0.267 OA
HETATM    2  C1  UNL     1      25.495   2.180  52.898  1.00  0.00     0.268 C 
HETATM    3  N1  UNL     1      25.304   2.279  51.468  1.00  0.00    -0.246 N 
HETATM    4  H1  UNL     1      26.010   1.784  50.871  1.00  0.00     0.182 HD
ENDROOT
BRANCH   3   5
HETATM    5  S1  UNL     1      23.973   3.182  50.869  1.00  0.00     0.265 S 
HETATM    6  O2  UNL     1      24.090   4.581  51.461  1.00  0.00    -0.200 OA
HETATM    7  O3  UNL     1      24.125   3.419  49.365  1.00  0.00    -0.200 OA
BRANCH   5   8
HETATM    8  C2  UNL     1      22.421   2.472  51.197  1.00  0.00     0.080 A 
HETATM    9  C3  UNL     1      21.379   3.021  51.907  1.00  0.00     0.027 A 
HETATM   10  C4  UNL     1      20.197   2.307  52.107  1.00  0.00     0.020 A 
HETATM   11  C5  UNL     1      20.093   1.034  51.578  1.00  0.00     0.011 A 
HETATM   12 BR1  UNL     1      18.442   0.121  51.886  1.00  0.00    -0.051 Br
HETATM   13  C6  UNL     1      21.123   0.446  50.857  1.00  0.00     0.020 A 
HETATM   14  C7  UNL     1      22.295   1.182  50.669  1.00  0.00     0.027 A 
ENDBRANCH   5   8
ENDBRANCH   3   5
BRANCH   2  15
HETATM   15  C8  UNL     1      26.563   1.449  53.564  1.00  0.00     0.069 A 
HETATM   16  C9  UNL     1      27.715   2.246  53.434  1.00  0.00     0.021 A 
HETATM   17  C10 UNL     1      28.940   1.825  53.979  1.00  0.00     0.020 A 
HETATM   18  C11 UNL     1      28.994   0.601  54.652  1.00  0.00     0.118 A 
HETATM   19  N2  UNL     1      27.876  -0.107  54.740  1.00  0.00    -0.253 NA
HETATM   20  C12 UNL     1      26.678   0.249  54.237  1.00  0.00     0.118 A 
HETATM   21 BR2  UNL     1      25.000  -0.643  54.271  1.00  0.00    -0.028 Br
ENDBRANCH   2  15
TORSDOF 3
ENDMDL
MODEL 6
REMARK VINA RESULT:      -7.2      4.312      6.505
REMARK  3 active torsions:
REMARK  status: ('A' for Active; 'I' for Inactive)
REMARK       I    between atoms: C1_2  and  N1_3 
REMARK    1  A    between atoms: C1_2  and  C8_14 
REMARK    2  A    between atoms: N1_3  and  S1_4 
REMARK    3  A    between atoms: S1_4  and  C2_7 
ROOT
HETATM    1  O1  UNL     1      26.066   0.909  51.331  1.00  0.00    -0.267 OA
HETATM    2  C1  UNL     1      26.306   0.545  52.523  1.00  0.00     0.268 C 
HETATM    3  N1  UNL     1      25.154   0.778  53.365  1.00  0.00    -0.246 N 
HETATM    4  H1  UNL     1      25.251   0.499  54.370  1.00  0.00     0.182 HD
ENDROOT
BRANCH   3   5
HETATM    5  S1  UNL     1      23.745   1.470  52.670  1.00  0.00     0.265 S 
HETATM    6  O2  UNL     1      23.674   2.910  53.164  1.00  0.00    -0.200 OA
HETATM    7  O3  UNL     1      23.918   1.622  51.157  1.00  0.00    -0.200 OA
BRANCH   5   8
HETATM    8  C2  UNL     1      22.279   0.600  53.009  1.00  0.00     0.080 A 
HETATM    9  C3  UNL     1      22.069  -0.344  53.987  1.00  0.00     0.027 A 
HETATM   10  C4  UNL     1      20.831  -0.976  54.114  1.00  0.00     0.020 A 
HETATM   11  C5  UNL     1      19.820  -0.637  53.236  1.00  0.00     0.011 A 
HETATM   12 BR1  UNL     1      18.152  -1.539  53.477  1.00  0.00    -0.051 Br
HETATM   13  C6  UNL     1      19.994   0.309  52.236  1.00  0.00     0.020 A 
HETATM   14  C7  UNL     1      21.241   0.929  52.130  1.00  0.00     0.027 A 
ENDBRANCH   5   8
ENDBRANCH   3   5
BRANCH   2  15
HETATM   15  C8  UNL     1      27.574  -0.024  52.958  1.00  0.00     0.069 A 
HETATM   16  C9  UNL     1      27.470  -1.410  52.743  1.00  0.00     0.021 A 
HETATM   17  C10 UNL     1      28.539  -2.265  53.059  1.00  0.00     0.020 A 
HETATM   18  C11 UNL     1      29.709  -1.714  53.590  1.00  0.00     0.118 A 
HETATM   19  N2  UNL     1      29.747  -0.401  53.771  1.00  0.00    -0.253 NA
HETATM   20  C12 UNL     1      28.753   0.462  53.486  1.00  0.00     0.118 A 
HETATM   21 BR2  UNL     1      28.648   2.349  53.690  1.00  0.00    -0.028 Br
ENDBRANCH   2  15
TORSDOF 3
ENDMDL
MODEL 7
REMARK VINA RESULT:      -7.1      4.653      6.799
REMARK  3 active torsions:
REMARK  status: ('A' for Active; 'I' for Inactive)
REMARK       I    between atoms: C1_2  and  N1_3 
REMARK    1  A    between atoms: C1_2  and  C8_14 
REMARK    2  A    between atoms: N1_3  and  S1_4 
REMARK    3  A    between atoms: S1_4  and  C2_7 
ROOT
HETATM    1  O1  UNL     1      22.377   0.550  51.080  1.00  0.00    -0.267 OA
HETATM    2  C1  UNL     1      21.729   0.731  52.157  1.00  0.00     0.268 C 
HETATM    3  N1  UNL     1      22.423   1.670  53.012  1.00  0.00    -0.246 N 
HETATM    4  H1  UNL     1      21.959   1.894  53.925  1.00  0.00     0.182 HD
ENDROOT
BRANCH   3   5
HETATM    5  S1  UNL     1      23.911   2.336  52.477  1.00  0.00     0.265 S 
HETATM    6  O2  UNL     1      23.730   2.690  51.005  1.00  0.00    -0.200 OA
HETATM    7  O3  UNL     1      24.156   3.692  53.140  1.00  0.00    -0.200 OA
BRANCH   5   8
HETATM    8  C2  UNL     1      25.287   1.304  52.725  1.00  0.00     0.080 A 
HETATM    9  C3  UNL     1      25.300  -0.067  52.844  1.00  0.00     0.027 A 
HETATM   10  C4  UNL     1      26.494  -0.753  53.070  1.00  0.00     0.020 A 
HETATM   11  C5  UNL     1      27.665  -0.028  53.174  1.00  0.00     0.011 A 
HETATM   12 BR1  UNL     1      29.261  -1.036  53.476  1.00  0.00    -0.051 Br
HETATM   13  C6  UNL     1      27.693   1.355  53.061  1.00  0.00     0.020 A 
HETATM   14  C7  UNL     1      26.485   2.018  52.834  1.00  0.00     0.027 A 
ENDBRANCH   5   8
ENDBRANCH   3   5
BRANCH   2  15
HETATM   15  C8  UNL     1      20.468   0.073  52.466  1.00  0.00     0.069 A 
HETATM   16  C9  UNL     1      19.556   0.507  51.487  1.00  0.00     0.021 A 
HETATM   17  C10 UNL     1      18.227   0.049  51.494  1.00  0.00     0.020 A 
HETATM   18  C11 UNL     1      17.828  -0.845  52.492  1.00  0.00     0.118 A 
HETATM   19  N2  UNL     1      18.732  -1.216  53.389  1.00  0.00    -0.253 NA
HETATM   20  C12 UNL     1      20.015  -0.809  53.427  1.00  0.00     0.118 A 
HETATM   21 BR2  UNL     1      21.420  -1.236  54.634  1.00  0.00    -0.028 Br
ENDBRANCH   2  15
TORSDOF 3
ENDMDL
MODEL 8
REMARK VINA RESULT:      -7.1      2.085      2.783
REMARK  3 active torsions:
REMARK  status: ('A' for Active; 'I' for Inactive)
REMARK       I    between atoms: C1_2  and  N1_3 
REMARK    1  A    between atoms: C1_2  and  C8_14 
REMARK    2  A    between atoms: N1_3  and  S1_4 
REMARK    3  A    between atoms: S1_4  and  C2_7 
ROOT
HETATM    1  O1  UNL     1      24.113   2.765  50.005  1.00  0.00    -0.267 OA
HETATM    2  C1  UNL     1      24.281   2.798  51.263  1.00  0.00     0.268 C 
HETATM    3  N1  UNL     1      24.419   4.164  51.718  1.00  0.00    -0.246 N 
HETATM    4  H1  UNL     1      24.552   4.297  52.749  1.00  0.00     0.182 HD
ENDROOT
BRANCH   3   5
HETATM    5  S1  UNL     1      24.348   5.434  50.566  1.00  0.00     0.265 S 
HETATM    6  O2  UNL     1      23.180   5.120  49.638  1.00  0.00    -0.200 OA
HETATM    7  O3  UNL     1      23.925   6.740  51.239  1.00  0.00    -0.200 OA
BRANCH   5   8
HETATM    8  C2  UNL     1      25.824   5.680  49.681  1.00  0.00     0.080 A 
HETATM    9  C3  UNL     1      26.683   4.722  49.196  1.00  0.00     0.027 A 
HETATM   10  C4  UNL     1      27.851   5.084  48.524  1.00  0.00     0.020 A 
HETATM   11  C5  UNL     1      28.129   6.427  48.356  1.00  0.00     0.011 A 
HETATM   12 BR1  UNL     1      29.742   6.847  47.419  1.00  0.00    -0.051 Br
HETATM   13  C6  UNL     1      27.288   7.423  48.832  1.00  0.00     0.020 A 
HETATM   14  C7  UNL     1      26.125   7.034  49.500  1.00  0.00     0.027 A 
ENDBRANCH   5   8
ENDBRANCH   3   5
BRANCH   2  15
HETATM   15  C8  UNL     1      24.326   1.613  52.107  1.00  0.00     0.069 A 
HETATM   16  C9  UNL     1      22.987   1.291  52.393  1.00  0.00     0.021 A 
HETATM   17  C10 UNL     1      22.674   0.179  53.194  1.00  0.00     0.020 A 
HETATM   18  C11 UNL     1      23.718  -0.600  53.703  1.00  0.00     0.118 A 
HETATM   19  N2  UNL     1      24.959  -0.245  53.400  1.00  0.00    -0.253 NA
HETATM   20  C12 UNL     1      25.313   0.807  52.638  1.00  0.00     0.118 A 
HETATM   21 BR2  UNL     1      27.026   1.447  52.121  1.00  0.00    -0.028 Br
ENDBRANCH   2  15
TORSDOF 3
ENDMDL
MODEL 9
REMARK VINA RESULT:      -6.9      1.685      2.113
REMARK  3 active torsions:
REMARK  status: ('A' for Active; 'I' for Inactive)
REMARK       I    between atoms: C1_2  and  N1_3 
REMARK    1  A    between atoms: C1_2  and  C8_14 
REMARK    2  A    between atoms: N1_3  and  S1_4 
REMARK    3  A    between atoms: S1_4  and  C2_7 
ROOT
HETATM    1  O1  UNL     1      23.951   2.205  50.324  1.00  0.00    -0.267 OA
HETATM    2  C1  UNL     1      24.514   2.209  51.463  1.00  0.00     0.268 C 
HETATM    3  N1  UNL     1      24.700   3.565  51.929  1.00  0.00    -0.246 N 
HETATM    4  H1  UNL     1      25.150   3.672  52.870  1.00  0.00     0.182 HD
ENDROOT
BRANCH   3   5
HETATM    5  S1  UNL     1      24.176   4.863  50.937  1.00  0.00     0.265 S 
HETATM    6  O2  UNL     1      23.064   4.316  50.049  1.00  0.00    -0.200 OA
HETATM    7  O3  UNL     1      23.467   5.924  51.780  1.00  0.00    -0.200 OA
BRANCH   5   8
HETATM    8  C2  UNL     1      25.440   5.604  50.002  1.00  0.00     0.080 A 
HETATM    9  C3  UNL     1      25.638   6.945  49.771  1.00  0.00     0.027 A 
HETATM   10  C4  UNL     1      26.693   7.383  48.968  1.00  0.00     0.020 A 
HETATM   11  C5  UNL     1      27.535   6.441  48.409  1.00  0.00     0.011 A 
HETATM   12 BR1  UNL     1      28.962   7.116  47.329  1.00  0.00    -0.051 Br
HETATM   13  C6  UNL     1      27.367   5.079  48.618  1.00  0.00     0.020 A 
HETATM   14  C7  UNL     1      26.305   4.667  49.425  1.00  0.00     0.027 A 
ENDBRANCH   5   8
ENDBRANCH   3   5
BRANCH   2  15
HETATM   15  C8  UNL     1      24.908   1.003  52.177  1.00  0.00     0.069 A 
HETATM   16  C9  UNL     1      26.263   0.792  51.859  1.00  0.00     0.021 A 
HETATM   17  C10 UNL     1      26.960  -0.303  52.396  1.00  0.00     0.020 A 
HETATM   18  C11 UNL     1      26.285  -1.180  53.251  1.00  0.00     0.118 A 
HETATM   19  N2  UNL     1      25.009  -0.929  53.511  1.00  0.00    -0.253 NA
HETATM   20  C12 UNL     1      24.295   0.103  53.025  1.00  0.00     0.118 A 
HETATM   21 BR2  UNL     1      22.478   0.594  53.293  1.00  0.00    -0.028 Br
ENDBRANCH   2  15
TORSDOF 3
ENDMDL
