MODEL 1
REMARK VINA RESULT:      -7.8      0.000      0.000
REMARK  7 active torsions:
REMARK  status: ('A' for Active; 'I' for Inactive)
REMARK    1  A    between atoms: C3_3  and  C4_4 
REMARK    2  A    between atoms: C5_5  and  C6_6 
REMARK    3  A    between atoms: C7_7  and  C8_8 
REMARK    4  A    between atoms: C8_8  and  N1_9 
REMARK    5  A    between atoms: N1_9  and  C9_10 
REMARK    6  A    between atoms: C13_16  and  O1_17 
REMARK    7  A    between atoms: C15_19  and  O2_20 
ROOT
HETATM    1  C9  UNL     1      23.128   1.740  52.466  1.00  0.00     0.138 A 
HETATM    2  N2  UNL     1      22.158   0.833  52.325  1.00  0.00    -0.224 NA
HETATM    3  C10 UNL     1      22.267  -0.430  52.763  1.00  0.00     0.235 A 
HETATM    4  N3  UNL     1      23.374  -0.874  53.379  1.00  0.00    -0.241 NA
HETATM    5  C11 UNL     1      24.420  -0.021  53.569  1.00  0.00     0.075 A 
HETATM    6  C12 UNL     1      25.582  -0.417  54.195  1.00  0.00     0.072 A 
HETATM    7  C13 UNL     1      26.637   0.448  54.385  1.00  0.00     0.103 A 
HETATM    8  C15 UNL     1      26.493   1.736  53.925  1.00  0.00     0.100 A 
HETATM    9  C16 UNL     1      25.320   2.108  53.302  1.00  0.00     0.057 A 
HETATM   10  C17 UNL     1      24.252   1.259  53.101  1.00  0.00     0.041 A 
ENDROOT
BRANCH   1  11
HETATM   11  N1  UNL     1      22.975   3.070  51.988  1.00  0.00    -0.364 N 
HETATM   12  H10 UNL     1      22.896   3.925  52.571  1.00  0.00     0.162 HD
BRANCH  11  13
HETATM   13  C8  UNL     1      22.921   3.263  50.546  1.00  0.00     0.216 C 
BRANCH  13  14
HETATM   14  C7  UNL     1      24.313   3.481  50.091  1.00  0.00    -0.082 C 
HETATM   15  C6  UNL     1      25.459   3.661  49.738  1.00  0.00    -0.077 C 
BRANCH  15  16
HETATM   16  C5  UNL     1      26.828   3.874  49.343  1.00  0.00     0.064 C 
HETATM   17  C4  UNL     1      27.200   5.021  48.751  1.00  0.00     0.009 C 
BRANCH  17  18
HETATM   18  C3  UNL     1      28.546   5.345  48.312  1.00  0.00    -0.004 C 
HETATM   19  C2  UNL     1      28.875   6.509  47.766  1.00  0.00    -0.031 C 
HETATM   20  C1  UNL     1      27.830   7.532  47.593  1.00  0.00     0.036 C 
ENDBRANCH  17  18
ENDBRANCH  15  16
ENDBRANCH  13  14
ENDBRANCH  11  13
ENDBRANCH   1  11
BRANCH   8  21
HETATM   21  O2  UNL     1      27.561   2.618  54.116  1.00  0.00    -0.358 OA
HETATM   22  H16 UNL     1      28.280   2.443  54.802  1.00  0.00     0.217 HD
ENDBRANCH   8  21
BRANCH   7  23
HETATM   23  O1  UNL     1      27.813   0.071  55.013  1.00  0.00    -0.353 OA
HETATM   24  C14 UNL     1      28.846  -0.434  54.186  1.00  0.00     0.210 C 
ENDBRANCH   7  23
TORSDOF 7
ENDMDL
MODEL 2
REMARK VINA RESULT:      -7.4      2.029      2.822
REMARK  7 active torsions:
REMARK  status: ('A' for Active; 'I' for Inactive)
REMARK    1  A    between atoms: C3_3  and  C4_4 
REMARK    2  A    between atoms: C5_5  and  C6_6 
REMARK    3  A    between atoms: C7_7  and  C8_8 
REMARK    4  A    between atoms: C8_8  and  N1_9 
REMARK    5  A    between atoms: N1_9  and  C9_10 
REMARK    6  A    between atoms: C13_16  and  O1_17 
REMARK    7  A    between atoms: C15_19  and  O2_20 
ROOT
HETATM    1  C9  UNL     1      25.332   2.895  51.422  1.00  0.00     0.138 A 
HETATM    2  N2  UNL     1      24.054   2.555  51.241  1.00  0.00    -0.224 NA
HETATM    3  C10 UNL     1      23.529   1.408  51.698  1.00  0.00     0.235 A 
HETATM    4  N3  UNL     1      24.264   0.513  52.376  1.00  0.00    -0.241 NA
HETATM    5  C11 UNL     1      25.581   0.771  52.611  1.00  0.00     0.075 A 
HETATM    6  C12 UNL     1      26.387  -0.109  53.302  1.00  0.00     0.072 A 
HETATM    7  C13 UNL     1      27.718   0.155  53.537  1.00  0.00     0.103 A 
HETATM    8  C15 UNL     1      28.225   1.340  53.056  1.00  0.00     0.100 A 
HETATM    9  C16 UNL     1      27.399   2.204  52.367  1.00  0.00     0.057 A 
HETATM   10  C17 UNL     1      26.064   1.959  52.121  1.00  0.00     0.041 A 
ENDROOT
BRANCH   1  11
HETATM   11  N1  UNL     1      25.853   4.120  50.922  1.00  0.00    -0.364 N 
HETATM   12  H10 UNL     1      26.424   4.805  51.453  1.00  0.00     0.162 HD
BRANCH  11  13
HETATM   13  C8  UNL     1      25.562   4.456  49.536  1.00  0.00     0.216 C 
BRANCH  13  14
HETATM   14  C7  UNL     1      26.805   5.017  48.961  1.00  0.00    -0.082 C 
HETATM   15  C6  UNL     1      27.833   5.459  48.493  1.00  0.00    -0.077 C 
BRANCH  15  16
HETATM   16  C5  UNL     1      29.065   5.962  47.942  1.00  0.00     0.064 C 
HETATM   17  C4  UNL     1      30.190   5.230  47.996  1.00  0.00     0.009 C 
BRANCH  17  18
HETATM   18  C3  UNL     1      31.484   5.633  47.474  1.00  0.00    -0.004 C 
HETATM   19  C2  UNL     1      32.307   4.805  46.844  1.00  0.00    -0.031 C 
HETATM   20  C1  UNL     1      31.896   3.403  46.657  1.00  0.00     0.036 C 
ENDBRANCH  17  18
ENDBRANCH  15  16
ENDBRANCH  13  14
ENDBRANCH  11  13
ENDBRANCH   1  11
BRANCH   8  21
HETATM   21  O2  UNL     1      29.576   1.612  53.293  1.00  0.00    -0.358 OA
HETATM   22  H16 UNL     1      29.911   2.551  53.451  1.00  0.00     0.217 HD
ENDBRANCH   8  21
BRANCH   7  23
HETATM   23  O1  UNL     1      28.545  -0.714  54.229  1.00  0.00    -0.353 OA
HETATM   24  C14 UNL     1      29.326  -1.607  53.455  1.00  0.00     0.210 C 
ENDBRANCH   7  23
TORSDOF 7
ENDMDL
MODEL 3
REMARK VINA RESULT:      -7.2      2.774      3.974
REMARK  7 active torsions:
REMARK  status: ('A' for Active; 'I' for Inactive)
REMARK    1  A    between atoms: C3_3  and  C4_4 
REMARK    2  A    between atoms: C5_5  and  C6_6 
REMARK    3  A    between atoms: C7_7  and  C8_8 
REMARK    4  A    between atoms: C8_8  and  N1_9 
REMARK    5  A    between atoms: N1_9  and  C9_10 
REMARK    6  A    between atoms: C13_16  and  O1_17 
REMARK    7  A    between atoms: C15_19  and  O2_20 
ROOT
HETATM    1  C9  UNL     1      26.638   2.402  51.942  1.00  0.00     0.138 A 
HETATM    2  N2  UNL     1      27.871   2.196  52.410  1.00  0.00    -0.224 NA
HETATM    3  C10 UNL     1      28.179   1.194  53.247  1.00  0.00     0.235 A 
HETATM    4  N3  UNL     1      27.255   0.320  53.678  1.00  0.00    -0.241 NA
HETATM    5  C11 UNL     1      25.966   0.449  53.255  1.00  0.00     0.075 A 
HETATM    6  C12 UNL     1      24.973  -0.416  53.662  1.00  0.00     0.072 A 
HETATM    7  C13 UNL     1      23.672  -0.282  53.233  1.00  0.00     0.103 A 
HETATM    8  C15 UNL     1      23.389   0.755  52.374  1.00  0.00     0.100 A 
HETATM    9  C16 UNL     1      24.400   1.608  51.982  1.00  0.00     0.057 A 
HETATM   10  C17 UNL     1      25.709   1.492  52.400  1.00  0.00     0.041 A 
ENDROOT
BRANCH   1  11
HETATM   11  N1  UNL     1      26.350   3.476  51.056  1.00  0.00    -0.364 N 
HETATM   12  H10 UNL     1      26.078   4.440  51.330  1.00  0.00     0.162 HD
BRANCH  11  13
HETATM   13  C8  UNL     1      26.442   3.209  49.628  1.00  0.00     0.216 C 
BRANCH  13  14
HETATM   14  C7  UNL     1      27.179   4.343  49.027  1.00  0.00    -0.082 C 
HETATM   15  C6  UNL     1      27.777   5.285  48.550  1.00  0.00    -0.077 C 
BRANCH  15  16
HETATM   16  C5  UNL     1      28.478   6.417  48.002  1.00  0.00     0.064 C 
HETATM   17  C4  UNL     1      29.803   6.365  47.788  1.00  0.00     0.009 C 
BRANCH  17  18
HETATM   18  C3  UNL     1      30.612   7.441  47.242  1.00  0.00    -0.004 C 
HETATM   19  C2  UNL     1      31.418   8.195  47.979  1.00  0.00    -0.031 C 
HETATM   20  C1  UNL     1      31.506   7.935  49.425  1.00  0.00     0.036 C 
ENDBRANCH  17  18
ENDBRANCH  15  16
ENDBRANCH  13  14
ENDBRANCH  11  13
ENDBRANCH   1  11
BRANCH   8  21
HETATM   21  O2  UNL     1      22.069   0.894  51.936  1.00  0.00    -0.358 OA
HETATM   22  H16 UNL     1      21.295   0.947  52.583  1.00  0.00     0.217 HD
ENDBRANCH   8  21
BRANCH   7  23
HETATM   23  O1  UNL     1      22.659  -1.141  53.628  1.00  0.00    -0.353 OA
HETATM   24  C14 UNL     1      22.366  -1.190  55.013  1.00  0.00     0.210 C 
ENDBRANCH   7  23
TORSDOF 7
ENDMDL
MODEL 4
REMARK VINA RESULT:      -7.0      5.174      9.314
REMARK  7 active torsions:
REMARK  status: ('A' for Active; 'I' for Inactive)
REMARK    1  A    between atoms: C3_3  and  C4_4 
REMARK    2  A    between atoms: C5_5  and  C6_6 
REMARK    3  A    between atoms: C7_7  and  C8_8 
REMARK    4  A    between atoms: C8_8  and  N1_9 
REMARK    5  A    between atoms: N1_9  and  C9_10 
REMARK    6  A    between atoms: C13_16  and  O1_17 
REMARK    7  A    between atoms: C15_19  and  O2_20 
ROOT
HETATM    1  C9  UNL     1      29.462   8.285  48.769  1.00  0.00     0.138 A 
HETATM    2  N2  UNL     1      29.399   9.596  48.527  1.00  0.00    -0.224 NA
HETATM    3  C10 UNL     1      30.458  10.319  48.132  1.00  0.00     0.235 A 
HETATM    4  N3  UNL     1      31.668   9.765  47.954  1.00  0.00    -0.241 NA
HETATM    5  C11 UNL     1      31.831   8.431  48.177  1.00  0.00     0.075 A 
HETATM    6  C12 UNL     1      33.048   7.805  48.011  1.00  0.00     0.072 A 
HETATM    7  C13 UNL     1      33.209   6.456  48.237  1.00  0.00     0.103 A 
HETATM    8  C15 UNL     1      32.103   5.743  48.640  1.00  0.00     0.100 A 
HETATM    9  C16 UNL     1      30.897   6.392  48.800  1.00  0.00     0.057 A 
HETATM   10  C17 UNL     1      30.714   7.741  48.578  1.00  0.00     0.041 A 
ENDROOT
BRANCH   1  11
HETATM   11  N1  UNL     1      28.316   7.552  49.186  1.00  0.00    -0.364 N 
HETATM   12  H10 UNL     1      27.985   7.437  50.164  1.00  0.00     0.162 HD
BRANCH  11  13
HETATM   13  C8  UNL     1      27.527   6.896  48.154  1.00  0.00     0.216 C 
BRANCH  13  14
HETATM   14  C7  UNL     1      27.169   5.558  48.674  1.00  0.00    -0.082 C 
HETATM   15  C6  UNL     1      26.854   4.467  49.102  1.00  0.00    -0.077 C 
BRANCH  15  16
HETATM   16  C5  UNL     1      26.458   3.179  49.611  1.00  0.00     0.064 C 
HETATM   17  C4  UNL     1      26.713   2.837  50.884  1.00  0.00     0.009 C 
BRANCH  17  18
HETATM   18  C3  UNL     1      26.361   1.571  51.504  1.00  0.00    -0.004 C 
HETATM   19  C2  UNL     1      26.949   1.106  52.599  1.00  0.00    -0.031 C 
HETATM   20  C1  UNL     1      28.013   1.907  53.227  1.00  0.00     0.036 C 
ENDBRANCH  17  18
ENDBRANCH  15  16
ENDBRANCH  13  14
ENDBRANCH  11  13
ENDBRANCH   1  11
BRANCH   8  21
HETATM   21  O2  UNL     1      32.263   4.373  48.871  1.00  0.00    -0.358 OA
HETATM   22  H16 UNL     1      32.485   3.730  48.127  1.00  0.00     0.217 HD
ENDBRANCH   8  21
BRANCH   7  23
HETATM   23  O1  UNL     1      34.422   5.807  48.075  1.00  0.00    -0.353 OA
HETATM   24  C14 UNL     1      35.520   6.308  48.817  1.00  0.00     0.210 C 
ENDBRANCH   7  23
TORSDOF 7
ENDMDL
MODEL 5
REMARK VINA RESULT:      -6.9      4.743      9.492
REMARK  7 active torsions:
REMARK  status: ('A' for Active; 'I' for Inactive)
REMARK    1  A    between atoms: C3_3  and  C4_4 
REMARK    2  A    between atoms: C5_5  and  C6_6 
REMARK    3  A    between atoms: C7_7  and  C8_8 
REMARK    4  A    between atoms: C8_8  and  N1_9 
REMARK    5  A    between atoms: N1_9  and  C9_10 
REMARK    6  A    between atoms: C13_16  and  O1_17 
REMARK    7  A    between atoms: C15_19  and  O2_20 
ROOT
HETATM    1  C9  UNL     1      21.285  -0.357  53.204  1.00  0.00     0.138 A 
HETATM    2  N2  UNL     1      20.976   0.353  52.117  1.00  0.00    -0.224 NA
HETATM    3  C10 UNL     1      21.884   1.042  51.410  1.00  0.00     0.235 A 
HETATM    4  N3  UNL     1      23.182   1.064  51.753  1.00  0.00    -0.241 NA
HETATM    5  C11 UNL     1      23.595   0.369  52.849  1.00  0.00     0.075 A 
HETATM    6  C12 UNL     1      24.913   0.353  53.252  1.00  0.00     0.072 A 
HETATM    7  C13 UNL     1      25.326  -0.351  54.361  1.00  0.00     0.103 A 
HETATM    8  C15 UNL     1      24.370  -1.047  55.064  1.00  0.00     0.100 A 
HETATM    9  C16 UNL     1      23.058  -1.015  54.642  1.00  0.00     0.057 A 
HETATM   10  C17 UNL     1      22.623  -0.318  53.534  1.00  0.00     0.041 A 
ENDROOT
BRANCH   1  11
HETATM   11  N1  UNL     1      20.294  -1.075  53.928  1.00  0.00    -0.364 N 
HETATM   12  H10 UNL     1      20.468  -1.789  54.662  1.00  0.00     0.162 HD
BRANCH  11  13
HETATM   13  C8  UNL     1      18.900  -0.791  53.619  1.00  0.00     0.216 C 
BRANCH  13  14
HETATM   14  C7  UNL     1      18.203  -2.094  53.546  1.00  0.00    -0.082 C 
HETATM   15  C6  UNL     1      17.615  -3.153  53.478  1.00  0.00    -0.077 C 
BRANCH  15  16
HETATM   16  C5  UNL     1      16.897  -4.398  53.388  1.00  0.00     0.064 C 
HETATM   17  C4  UNL     1      16.253  -4.898  54.456  1.00  0.00     0.009 C 
BRANCH  17  18
HETATM   18  C3  UNL     1      15.499  -6.139  54.481  1.00  0.00    -0.004 C 
HETATM   19  C2  UNL     1      14.184  -6.191  54.650  1.00  0.00    -0.031 C 
HETATM   20  C1  UNL     1      13.441  -4.931  54.818  1.00  0.00     0.036 C 
ENDBRANCH  17  18
ENDBRANCH  15  16
ENDBRANCH  13  14
ENDBRANCH  11  13
ENDBRANCH   1  11
BRANCH   8  21
HETATM   21  O2  UNL     1      24.786  -1.763  56.191  1.00  0.00    -0.358 OA
HETATM   22  H16 UNL     1      25.479  -1.400  56.827  1.00  0.00     0.217 HD
ENDBRANCH   8  21
BRANCH   7  23
HETATM   23  O1  UNL     1      26.645  -0.381  54.782  1.00  0.00    -0.353 OA
HETATM   24  C14 UNL     1      27.633  -0.071  53.816  1.00  0.00     0.210 C 
ENDBRANCH   7  23
TORSDOF 7
ENDMDL
MODEL 6
REMARK VINA RESULT:      -6.8      1.406      1.761
REMARK  7 active torsions:
REMARK  status: ('A' for Active; 'I' for Inactive)
REMARK    1  A    between atoms: C3_3  and  C4_4 
REMARK    2  A    between atoms: C5_5  and  C6_6 
REMARK    3  A    between atoms: C7_7  and  C8_8 
REMARK    4  A    between atoms: C8_8  and  N1_9 
REMARK    5  A    between atoms: N1_9  and  C9_10 
REMARK    6  A    between atoms: C13_16  and  O1_17 
REMARK    7  A    between atoms: C15_19  and  O2_20 
ROOT
HETATM    1  C9  UNL     1      23.167   1.037  52.947  1.00  0.00     0.138 A 
HETATM    2  N2  UNL     1      22.540   0.084  53.640  1.00  0.00    -0.224 NA
HETATM    3  C10 UNL     1      23.187  -0.838  54.368  1.00  0.00     0.235 A 
HETATM    4  N3  UNL     1      24.527  -0.864  54.450  1.00  0.00    -0.241 NA
HETATM    5  C11 UNL     1      25.256   0.069  53.777  1.00  0.00     0.075 A 
HETATM    6  C12 UNL     1      26.633   0.094  53.821  1.00  0.00     0.072 A 
HETATM    7  C13 UNL     1      27.366   1.039  53.139  1.00  0.00     0.103 A 
HETATM    8  C15 UNL     1      26.672   1.970  52.402  1.00  0.00     0.100 A 
HETATM    9  C16 UNL     1      25.294   1.925  52.372  1.00  0.00     0.057 A 
HETATM   10  C17 UNL     1      24.541   0.987  53.048  1.00  0.00     0.041 A 
ENDROOT
BRANCH   1  11
HETATM   11  N1  UNL     1      22.446   1.997  52.185  1.00  0.00    -0.364 N 
HETATM   12  H10 UNL     1      21.980   2.848  52.556  1.00  0.00     0.162 HD
BRANCH  11  13
HETATM   13  C8  UNL     1      22.344   1.776  50.750  1.00  0.00     0.216 C 
BRANCH  13  14
HETATM   14  C7  UNL     1      22.972   2.942  50.091  1.00  0.00    -0.082 C 
HETATM   15  C6  UNL     1      23.497   3.886  49.538  1.00  0.00    -0.077 C 
BRANCH  15  16
HETATM   16  C5  UNL     1      24.135   4.990  48.869  1.00  0.00     0.064 C 
HETATM   17  C4  UNL     1      25.406   5.321  49.150  1.00  0.00     0.009 C 
BRANCH  17  18
HETATM   18  C3  UNL     1      26.149   6.410  48.540  1.00  0.00    -0.004 C 
HETATM   19  C2  UNL     1      27.437   6.332  48.233  1.00  0.00    -0.031 C 
HETATM   20  C1  UNL     1      28.161   5.082  48.519  1.00  0.00     0.036 C 
ENDBRANCH  17  18
ENDBRANCH  15  16
ENDBRANCH  13  14
ENDBRANCH  11  13
ENDBRANCH   1  11
BRANCH   8  21
HETATM   21  O2  UNL     1      27.413   2.932  51.708  1.00  0.00    -0.358 OA
HETATM   22  H16 UNL     1      27.528   2.896  50.706  1.00  0.00     0.217 HD
ENDBRANCH   8  21
BRANCH   7  23
HETATM   23  O1  UNL     1      28.750   1.083  53.171  1.00  0.00    -0.353 OA
HETATM   24  C14 UNL     1      29.383   0.491  54.292  1.00  0.00     0.210 C 
ENDBRANCH   7  23
TORSDOF 7
ENDMDL
MODEL 7
REMARK VINA RESULT:      -6.7      3.143      7.132
REMARK  7 active torsions:
REMARK  status: ('A' for Active; 'I' for Inactive)
REMARK    1  A    between atoms: C3_3  and  C4_4 
REMARK    2  A    between atoms: C5_5  and  C6_6 
REMARK    3  A    between atoms: C7_7  and  C8_8 
REMARK    4  A    between atoms: C8_8  and  N1_9 
REMARK    5  A    between atoms: N1_9  and  C9_10 
REMARK    6  A    between atoms: C13_16  and  O1_17 
REMARK    7  A    between atoms: C15_19  and  O2_20 
ROOT
HETATM    1  C9  UNL     1      24.390   2.240  51.665  1.00  0.00     0.138 A 
HETATM    2  N2  UNL     1      24.821   3.120  50.758  1.00  0.00    -0.224 NA
HETATM    3  C10 UNL     1      26.121   3.347  50.519  1.00  0.00     0.235 A 
HETATM    4  N3  UNL     1      27.089   2.698  51.185  1.00  0.00    -0.241 NA
HETATM    5  C11 UNL     1      26.747   1.780  52.132  1.00  0.00     0.075 A 
HETATM    6  C12 UNL     1      27.695   1.081  52.849  1.00  0.00     0.072 A 
HETATM    7  C13 UNL     1      27.345   0.154  53.805  1.00  0.00     0.103 A 
HETATM    8  C15 UNL     1      26.004  -0.057  54.026  1.00  0.00     0.100 A 
HETATM    9  C16 UNL     1      25.075   0.655  53.296  1.00  0.00     0.057 A 
HETATM   10  C17 UNL     1      25.403   1.588  52.335  1.00  0.00     0.041 A 
ENDROOT
BRANCH   1  11
HETATM   11  N1  UNL     1      23.002   2.026  51.890  1.00  0.00    -0.364 N 
HETATM   12  H10 UNL     1      22.466   2.320  52.729  1.00  0.00     0.162 HD
BRANCH  11  13
HETATM   13  C8  UNL     1      22.254   1.330  50.854  1.00  0.00     0.216 C 
BRANCH  13  14
HETATM   14  C7  UNL     1      21.082   0.712  51.514  1.00  0.00    -0.082 C 
HETATM   15  C6  UNL     1      20.135   0.190  52.063  1.00  0.00    -0.077 C 
BRANCH  15  16
HETATM   16  C5  UNL     1      19.025  -0.446  52.724  1.00  0.00     0.064 C 
HETATM   17  C4  UNL     1      17.865  -0.647  52.078  1.00  0.00     0.009 C 
BRANCH  17  18
HETATM   18  C3  UNL     1      16.683  -1.276  52.643  1.00  0.00    -0.004 C 
HETATM   19  C2  UNL     1      15.583  -1.522  51.943  1.00  0.00    -0.031 C 
HETATM   20  C1  UNL     1      15.547  -1.144  50.520  1.00  0.00     0.036 C 
ENDBRANCH  17  18
ENDBRANCH  15  16
ENDBRANCH  13  14
ENDBRANCH  11  13
ENDBRANCH   1  11
BRANCH   8  21
HETATM   21  O2  UNL     1      25.645  -0.998  54.996  1.00  0.00    -0.358 OA
HETATM   22  H16 UNL     1      25.704  -1.990  54.824  1.00  0.00     0.217 HD
ENDBRANCH   8  21
BRANCH   7  23
HETATM   23  O1  UNL     1      28.280  -0.560  54.536  1.00  0.00    -0.353 OA
HETATM   24  C14 UNL     1      29.528  -0.807  53.912  1.00  0.00     0.210 C 
ENDBRANCH   7  23
TORSDOF 7
ENDMDL
MODEL 8
REMARK VINA RESULT:      -6.6      2.581      4.063
REMARK  7 active torsions:
REMARK  status: ('A' for Active; 'I' for Inactive)
REMARK    1  A    between atoms: C3_3  and  C4_4 
REMARK    2  A    between atoms: C5_5  and  C6_6 
REMARK    3  A    between atoms: C7_7  and  C8_8 
REMARK    4  A    between atoms: C8_8  and  N1_9 
REMARK    5  A    between atoms: N1_9  and  C9_10 
REMARK    6  A    between atoms: C13_16  and  O1_17 
REMARK    7  A    between atoms: C15_19  and  O2_20 
ROOT
HETATM    1  C9  UNL     1      24.444   2.323  52.022  1.00  0.00     0.138 A 
HETATM    2  N2  UNL     1      24.803   3.142  51.030  1.00  0.00    -0.224 NA
HETATM    3  C10 UNL     1      26.077   3.317  50.650  1.00  0.00     0.235 A 
HETATM    4  N3  UNL     1      27.091   2.672  51.249  1.00  0.00    -0.241 NA
HETATM    5  C11 UNL     1      26.824   1.814  52.272  1.00  0.00     0.075 A 
HETATM    6  C12 UNL     1      27.821   1.123  52.927  1.00  0.00     0.072 A 
HETATM    7  C13 UNL     1      27.547   0.256  53.961  1.00  0.00     0.103 A 
HETATM    8  C15 UNL     1      26.230   0.099  54.327  1.00  0.00     0.100 A 
HETATM    9  C16 UNL     1      25.251   0.802  53.658  1.00  0.00     0.057 A 
HETATM   10  C17 UNL     1      25.503   1.674  52.619  1.00  0.00     0.041 A 
ENDROOT
BRANCH   1  11
HETATM   11  N1  UNL     1      23.081   2.165  52.397  1.00  0.00    -0.364 N 
HETATM   12  H10 UNL     1      22.552   2.772  53.053  1.00  0.00     0.162 HD
BRANCH  11  13
HETATM   13  C8  UNL     1      22.351   1.050  51.813  1.00  0.00     0.216 C 
BRANCH  13  14
HETATM   14  C7  UNL     1      22.172   1.359  50.377  1.00  0.00    -0.082 C 
HETATM   15  C6  UNL     1      22.046   1.610  49.197  1.00  0.00    -0.077 C 
BRANCH  15  16
HETATM   16  C5  UNL     1      21.922   1.906  47.793  1.00  0.00     0.064 C 
HETATM   17  C4  UNL     1      21.984   3.173  47.350  1.00  0.00     0.009 C 
BRANCH  17  18
HETATM   18  C3  UNL     1      21.872   3.588  45.962  1.00  0.00    -0.004 C 
HETATM   19  C2  UNL     1      22.029   4.842  45.561  1.00  0.00    -0.031 C 
HETATM   20  C1  UNL     1      22.336   5.875  46.565  1.00  0.00     0.036 C 
ENDBRANCH  17  18
ENDBRANCH  15  16
ENDBRANCH  13  14
ENDBRANCH  11  13
ENDBRANCH   1  11
BRANCH   8  21
HETATM   21  O2  UNL     1      25.948  -0.780  55.377  1.00  0.00    -0.358 OA
HETATM   22  H16 UNL     1      25.981  -0.486  56.342  1.00  0.00     0.217 HD
ENDBRANCH   8  21
BRANCH   7  23
HETATM   23  O1  UNL     1      28.534  -0.449  54.631  1.00  0.00    -0.353 OA
HETATM   24  C14 UNL     1      29.658  -0.856  53.871  1.00  0.00     0.210 C 
ENDBRANCH   7  23
TORSDOF 7
ENDMDL
MODEL 9
REMARK VINA RESULT:      -6.5      2.976      4.762
REMARK  7 active torsions:
REMARK  status: ('A' for Active; 'I' for Inactive)
REMARK    1  A    between atoms: C3_3  and  C4_4 
REMARK    2  A    between atoms: C5_5  and  C6_6 
REMARK    3  A    between atoms: C7_7  and  C8_8 
REMARK    4  A    between atoms: C8_8  and  N1_9 
REMARK    5  A    between atoms: N1_9  and  C9_10 
REMARK    6  A    between atoms: C13_16  and  O1_17 
REMARK    7  A    between atoms: C15_19  and  O2_20 
ROOT
HETATM    1  C9  UNL     1      25.681   4.413  50.279  1.00  0.00     0.138 A 
HETATM    2  N2  UNL     1      24.861   5.466  50.325  1.00  0.00    -0.224 NA
HETATM    3  C10 UNL     1      23.787   5.524  51.125  1.00  0.00     0.235 A 
HETATM    4  N3  UNL     1      23.458   4.513  51.945  1.00  0.00    -0.241 NA
HETATM    5  C11 UNL     1      24.235   3.394  51.969  1.00  0.00     0.075 A 
HETATM    6  C12 UNL     1      23.949   2.322  52.789  1.00  0.00     0.072 A 
HETATM    7  C13 UNL     1      24.737   1.193  52.810  1.00  0.00     0.103 A 
HETATM    8  C15 UNL     1      25.832   1.166  51.978  1.00  0.00     0.100 A 
HETATM    9  C16 UNL     1      26.096   2.249  51.167  1.00  0.00     0.057 A 
HETATM   10  C17 UNL     1      25.321   3.390  51.130  1.00  0.00     0.041 A 
ENDROOT
BRANCH   1  11
HETATM   11  N1  UNL     1      26.811   4.389  49.417  1.00  0.00    -0.364 N 
HETATM   12  H10 UNL     1      27.436   3.577  49.249  1.00  0.00     0.162 HD
BRANCH  11  13
HETATM   13  C8  UNL     1      27.132   5.613  48.697  1.00  0.00     0.216 C 
BRANCH  13  14
HETATM   14  C7  UNL     1      28.561   5.528  48.323  1.00  0.00    -0.082 C 
HETATM   15  C6  UNL     1      29.729   5.472  48.000  1.00  0.00    -0.077 C 
BRANCH  15  16
HETATM   16  C5  UNL     1      31.111   5.419  47.598  1.00  0.00     0.064 C 
HETATM   17  C4  UNL     1      31.634   4.293  47.085  1.00  0.00     0.009 C 
BRANCH  17  18
HETATM   18  C3  UNL     1      33.009   4.126  46.646  1.00  0.00    -0.004 C 
HETATM   19  C2  UNL     1      33.687   2.994  46.789  1.00  0.00    -0.031 C 
HETATM   20  C1  UNL     1      33.022   1.843  47.421  1.00  0.00     0.036 C 
ENDBRANCH  17  18
ENDBRANCH  15  16
ENDBRANCH  13  14
ENDBRANCH  11  13
ENDBRANCH   1  11
BRANCH   8  21
HETATM   21  O2  UNL     1      26.634   0.021  51.997  1.00  0.00    -0.358 OA
HETATM   22  H16 UNL     1      27.506  -0.028  51.491  1.00  0.00     0.217 HD
ENDBRANCH   8  21
BRANCH   7  23
HETATM   23  O1  UNL     1      24.469   0.106  53.627  1.00  0.00    -0.353 OA
HETATM   24  C14 UNL     1      23.221  -0.538  53.445  1.00  0.00     0.210 C 
ENDBRANCH   7  23
TORSDOF 7
ENDMDL
