MODEL 1
REMARK VINA RESULT:      -7.4      0.000      0.000
REMARK  6 active torsions:
REMARK  status: ('A' for Active; 'I' for Inactive)
REMARK    1  A    between atoms: O1_2  and  C2_3 
REMARK    2  A    between atoms: N1_6  and  C5_7 
REMARK    3  A    between atoms: C5_7  and  C6_8 
REMARK    4  A    between atoms: C5_7  and  C7_10 
REMARK    5  A    between atoms: C7_10  and  N2_11 
REMARK    6  A    between atoms: N2_11  and  C8_12 
ROOT
HETATM    1  C5  UNL     1      24.140  -0.262  54.167  1.00  0.00     0.135 C 
ENDROOT
BRANCH   1   2
HETATM    2  N1  UNL     1      25.544  -0.563  53.948  1.00  0.00    -0.376 N 
HETATM    3  C4  UNL     1      26.325   0.081  54.982  1.00  0.00     0.152 C 
HETATM    4  C3  UNL     1      27.581   0.683  54.487  1.00  0.00     0.027 C 
HETATM    5  C2  UNL     1      28.656   0.088  53.995  1.00  0.00     0.067 C 
HETATM    6  C16 UNL     1      29.208  -1.226  53.680  1.00  0.00     0.238 C 
HETATM    7  O3  UNL     1      28.261  -2.174  53.226  1.00  0.00    -0.355 OA
HETATM    8  C15 UNL     1      27.066  -2.036  52.543  1.00  0.00     0.152 C 
HETATM    9  C14 UNL     1      25.984  -1.371  52.872  1.00  0.00     0.110 C 
BRANCH   5  10
HETATM   10  O1  UNL     1      29.566   1.114  53.674  1.00  0.00    -0.358 OA
HETATM   11  C1  UNL     1      29.001   2.427  53.738  1.00  0.00     0.209 C 
ENDBRANCH   5  10
ENDBRANCH   1   2
BRANCH   1  12
HETATM   12  C6  UNL     1      23.545  -1.353  54.956  1.00  0.00     0.417 C 
HETATM   13  O2  UNL     1      22.649  -1.831  55.646  1.00  0.00    -0.428 OA
ENDBRANCH   1  12
BRANCH   1  14
HETATM   14  C7  UNL     1      23.432  -0.000  52.887  1.00  0.00     0.147 C 
BRANCH  14  15
HETATM   15  N2  UNL     1      23.425   1.378  52.449  1.00  0.00    -0.388 N 
HETATM   16  H11 UNL     1      22.631   1.966  52.853  1.00  0.00     0.159 HD
BRANCH  15  17
HETATM   17  C8  UNL     1      24.279   2.085  51.579  1.00  0.00     0.029 A 
HETATM   18  C9  UNL     1      25.652   1.980  51.547  1.00  0.00     0.032 A 
HETATM   19  C10 UNL     1      26.483   2.655  50.679  1.00  0.00     0.046 A 
HETATM   20  C11 UNL     1      25.923   3.513  49.757  1.00  0.00     0.138 A 
HETATM   21  F1  UNL     1      26.711   4.190  48.892  1.00  0.00    -0.204 F 
HETATM   22  C12 UNL     1      24.559   3.649  49.754  1.00  0.00     0.074 A 
HETATM   23 CL1  UNL     1      23.827   4.726  48.600  1.00  0.00    -0.081 Cl
HETATM   24  C13 UNL     1      23.769   2.953  50.640  1.00  0.00     0.056 A 
ENDBRANCH  15  17
ENDBRANCH  14  15
ENDBRANCH   1  14
TORSDOF 6
ENDMDL
MODEL 2
REMARK VINA RESULT:      -7.2      3.216      5.600
REMARK  6 active torsions:
REMARK  status: ('A' for Active; 'I' for Inactive)
REMARK    1  A    between atoms: O1_2  and  C2_3 
REMARK    2  A    between atoms: N1_6  and  C5_7 
REMARK    3  A    between atoms: C5_7  and  C6_8 
REMARK    4  A    between atoms: C5_7  and  C7_10 
REMARK    5  A    between atoms: C7_10  and  N2_11 
REMARK    6  A    between atoms: N2_11  and  C8_12 
ROOT
HETATM    1  C5  UNL     1      27.074   0.511  53.960  1.00  0.00     0.135 C 
ENDROOT
BRANCH   1   2
HETATM    2  N1  UNL     1      26.478   1.477  53.055  1.00  0.00    -0.376 N 
HETATM    3  C4  UNL     1      25.729   2.441  53.831  1.00  0.00     0.152 C 
HETATM    4  C3  UNL     1      24.439   2.821  53.218  1.00  0.00     0.027 C 
HETATM    5  C2  UNL     1      24.209   3.489  52.098  1.00  0.00     0.067 C 
HETATM    6  C16 UNL     1      24.887   4.144  50.984  1.00  0.00     0.238 C 
HETATM    7  O3  UNL     1      26.090   3.523  50.573  1.00  0.00    -0.355 OA
HETATM    8  C15 UNL     1      26.517   2.208  50.621  1.00  0.00     0.152 C 
HETATM    9  C14 UNL     1      26.662   1.411  51.653  1.00  0.00     0.110 C 
BRANCH   5  10
HETATM   10  O1  UNL     1      22.810   3.582  51.971  1.00  0.00    -0.358 OA
HETATM   11  C1  UNL     1      22.302   4.909  52.137  1.00  0.00     0.209 C 
ENDBRANCH   5  10
ENDBRANCH   1   2
BRANCH   1  12
HETATM   12  C6  UNL     1      27.524  -0.652  53.176  1.00  0.00     0.417 C 
HETATM   13  O2  UNL     1      27.512  -1.848  52.904  1.00  0.00    -0.428 OA
ENDBRANCH   1  12
BRANCH   1  14
HETATM   14  C7  UNL     1      26.147   0.157  55.067  1.00  0.00     0.147 C 
BRANCH  14  15
HETATM   15  N2  UNL     1      25.216  -0.914  54.783  1.00  0.00    -0.388 N 
HETATM   16  H11 UNL     1      25.630  -1.893  54.870  1.00  0.00     0.159 HD
BRANCH  15  17
HETATM   17  C8  UNL     1      23.858  -0.894  54.408  1.00  0.00     0.029 A 
HETATM   18  C9  UNL     1      22.807  -1.316  55.192  1.00  0.00     0.032 A 
HETATM   19  C10 UNL     1      21.477  -1.273  54.831  1.00  0.00     0.046 A 
HETATM   20  C11 UNL     1      21.142  -0.774  53.591  1.00  0.00     0.138 A 
HETATM   21  F1  UNL     1      19.847  -0.720  53.208  1.00  0.00    -0.204 F 
HETATM   22  C12 UNL     1      22.158  -0.344  52.777  1.00  0.00     0.074 A 
HETATM   23 CL1  UNL     1      21.761   0.290  51.206  1.00  0.00    -0.081 Cl
HETATM   24  C13 UNL     1      23.472  -0.405  53.180  1.00  0.00     0.056 A 
ENDBRANCH  15  17
ENDBRANCH  14  15
ENDBRANCH   1  14
TORSDOF 6
ENDMDL
MODEL 3
REMARK VINA RESULT:      -7.2      3.311      5.861
REMARK  6 active torsions:
REMARK  status: ('A' for Active; 'I' for Inactive)
REMARK    1  A    between atoms: O1_2  and  C2_3 
REMARK    2  A    between atoms: N1_6  and  C5_7 
REMARK    3  A    between atoms: C5_7  and  C6_8 
REMARK    4  A    between atoms: C5_7  and  C7_10 
REMARK    5  A    between atoms: C7_10  and  N2_11 
REMARK    6  A    between atoms: N2_11  and  C8_12 
ROOT
HETATM    1  C5  UNL     1      26.571   1.271  53.981  1.00  0.00     0.135 C 
ENDROOT
BRANCH   1   2
HETATM    2  N1  UNL     1      25.859   1.975  52.928  1.00  0.00    -0.376 N 
HETATM    3  C4  UNL     1      26.439   1.614  51.653  1.00  0.00     0.152 C 
HETATM    4  C3  UNL     1      26.570   2.752  50.719  1.00  0.00     0.027 C 
HETATM    5  C2  UNL     1      25.622   3.462  50.127  1.00  0.00     0.067 C 
HETATM    6  C16 UNL     1      24.173   3.586  50.014  1.00  0.00     0.238 C 
HETATM    7  O3  UNL     1      23.457   3.291  51.198  1.00  0.00    -0.355 OA
HETATM    8  C15 UNL     1      23.793   3.401  52.535  1.00  0.00     0.152 C 
HETATM    9  C14 UNL     1      24.779   2.848  53.201  1.00  0.00     0.110 C 
BRANCH   5  10
HETATM   10  O1  UNL     1      26.281   4.426  49.340  1.00  0.00    -0.358 OA
HETATM   11  C1  UNL     1      25.698   5.730  49.418  1.00  0.00     0.209 C 
ENDBRANCH   5  10
ENDBRANCH   1   2
BRANCH   1  12
HETATM   12  C6  UNL     1      27.969   1.733  53.991  1.00  0.00     0.417 C 
HETATM   13  O2  UNL     1      28.830   2.582  54.198  1.00  0.00    -0.428 OA
ENDBRANCH   1  12
BRANCH   1  14
HETATM   14  C7  UNL     1      26.433  -0.202  53.842  1.00  0.00     0.147 C 
BRANCH  14  15
HETATM   15  N2  UNL     1      25.328  -0.796  54.562  1.00  0.00    -0.388 N 
HETATM   16  H11 UNL     1      25.608  -1.307  55.456  1.00  0.00     0.159 HD
BRANCH  15  17
HETATM   17  C8  UNL     1      23.945  -0.825  54.291  1.00  0.00     0.029 A 
HETATM   18  C9  UNL     1      22.968  -1.240  55.169  1.00  0.00     0.032 A 
HETATM   19  C10 UNL     1      21.614  -1.244  54.910  1.00  0.00     0.046 A 
HETATM   20  C11 UNL     1      21.174  -0.804  53.680  1.00  0.00     0.138 A 
HETATM   21  F1  UNL     1      19.852  -0.796  53.396  1.00  0.00    -0.204 F 
HETATM   22  C12 UNL     1      22.113  -0.382  52.775  1.00  0.00     0.074 A 
HETATM   23 CL1  UNL     1      21.581   0.178  51.216  1.00  0.00    -0.081 Cl
HETATM   24  C13 UNL     1      23.455  -0.396  53.079  1.00  0.00     0.056 A 
ENDBRANCH  15  17
ENDBRANCH  14  15
ENDBRANCH   1  14
TORSDOF 6
ENDMDL
MODEL 4
REMARK VINA RESULT:      -6.9      3.861      6.907
REMARK  6 active torsions:
REMARK  status: ('A' for Active; 'I' for Inactive)
REMARK    1  A    between atoms: O1_2  and  C2_3 
REMARK    2  A    between atoms: N1_6  and  C5_7 
REMARK    3  A    between atoms: C5_7  and  C6_8 
REMARK    4  A    between atoms: C5_7  and  C7_10 
REMARK    5  A    between atoms: C7_10  and  N2_11 
REMARK    6  A    between atoms: N2_11  and  C8_12 
ROOT
HETATM    1  C5  UNL     1      24.964   3.269  52.497  1.00  0.00     0.135 C 
ENDROOT
BRANCH   1   2
HETATM    2  N1  UNL     1      23.546   3.023  52.303  1.00  0.00    -0.376 N 
HETATM    3  C4  UNL     1      23.317   1.594  52.309  1.00  0.00     0.152 C 
HETATM    4  C3  UNL     1      22.342   1.146  51.292  1.00  0.00     0.027 C 
HETATM    5  C2  UNL     1      21.043   1.390  51.214  1.00  0.00     0.067 C 
HETATM    6  C16 UNL     1      19.955   2.086  51.893  1.00  0.00     0.238 C 
HETATM    7  O3  UNL     1      20.325   3.303  52.514  1.00  0.00    -0.355 OA
HETATM    8  C15 UNL     1      21.311   4.229  52.223  1.00  0.00     0.152 C 
HETATM    9  C14 UNL     1      22.611   4.074  52.148  1.00  0.00     0.110 C 
BRANCH   5  10
HETATM   10  O1  UNL     1      20.584   0.732  50.057  1.00  0.00    -0.358 OA
HETATM   11  C1  UNL     1      21.289   1.097  48.867  1.00  0.00     0.209 C 
ENDBRANCH   5  10
ENDBRANCH   1   2
BRANCH   1  12
HETATM   12  C6  UNL     1      25.680   2.880  51.271  1.00  0.00     0.417 C 
HETATM   13  O2  UNL     1      26.702   2.756  50.603  1.00  0.00    -0.428 OA
ENDBRANCH   1  12
BRANCH   1  14
HETATM   14  C7  UNL     1      25.472   2.594  53.720  1.00  0.00     0.147 C 
BRANCH  14  15
HETATM   15  N2  UNL     1      26.897   2.348  53.749  1.00  0.00    -0.388 N 
HETATM   16  H11 UNL     1      27.493   3.222  53.892  1.00  0.00     0.159 HD
BRANCH  15  17
HETATM   17  C8  UNL     1      27.642   1.158  53.619  1.00  0.00     0.029 A 
HETATM   18  C9  UNL     1      28.954   0.992  54.004  1.00  0.00     0.032 A 
HETATM   19  C10 UNL     1      29.673  -0.180  53.897  1.00  0.00     0.046 A 
HETATM   20  C11 UNL     1      29.054  -1.291  53.366  1.00  0.00     0.138 A 
HETATM   21  F1  UNL     1      29.732  -2.455  53.248  1.00  0.00    -0.204 F 
HETATM   22  C12 UNL     1      27.747  -1.170  52.969  1.00  0.00     0.074 A 
HETATM   23 CL1  UNL     1      26.944  -2.558  52.295  1.00  0.00    -0.081 Cl
HETATM   24  C13 UNL     1      27.070   0.022  53.095  1.00  0.00     0.056 A 
ENDBRANCH  15  17
ENDBRANCH  14  15
ENDBRANCH   1  14
TORSDOF 6
ENDMDL
MODEL 5
REMARK VINA RESULT:      -6.9      2.080      2.781
REMARK  6 active torsions:
REMARK  status: ('A' for Active; 'I' for Inactive)
REMARK    1  A    between atoms: O1_2  and  C2_3 
REMARK    2  A    between atoms: N1_6  and  C5_7 
REMARK    3  A    between atoms: C5_7  and  C6_8 
REMARK    4  A    between atoms: C5_7  and  C7_10 
REMARK    5  A    between atoms: C7_10  and  N2_11 
REMARK    6  A    between atoms: N2_11  and  C8_12 
ROOT
HETATM    1  C5  UNL     1      23.562   2.077  52.469  1.00  0.00     0.135 C 
ENDROOT
BRANCH   1   2
HETATM    2  N1  UNL     1      24.683   1.448  53.144  1.00  0.00    -0.376 N 
HETATM    3  C4  UNL     1      25.665   2.463  53.459  1.00  0.00     0.152 C 
HETATM    4  C3  UNL     1      27.060   2.025  53.239  1.00  0.00     0.027 C 
HETATM    5  C2  UNL     1      27.757   1.100  53.880  1.00  0.00     0.067 C 
HETATM    6  C16 UNL     1      27.663   0.125  54.962  1.00  0.00     0.238 C 
HETATM    7  O3  UNL     1      26.393  -0.483  55.105  1.00  0.00    -0.355 OA
HETATM    8  C15 UNL     1      25.389  -0.756  54.192  1.00  0.00     0.152 C 
HETATM    9  C14 UNL     1      24.718   0.059  53.415  1.00  0.00     0.110 C 
BRANCH   5  10
HETATM   10  O1  UNL     1      29.031   1.075  53.280  1.00  0.00    -0.358 OA
HETATM   11  C1  UNL     1      29.784  -0.105  53.573  1.00  0.00     0.209 C 
ENDBRANCH   5  10
ENDBRANCH   1   2
BRANCH   1  12
HETATM   12  C6  UNL     1      22.344   1.305  52.763  1.00  0.00     0.417 C 
HETATM   13  O2  UNL     1      21.197   1.206  53.189  1.00  0.00    -0.428 OA
ENDBRANCH   1  12
BRANCH   1  14
HETATM   14  C7  UNL     1      23.823   2.242  51.015  1.00  0.00     0.147 C 
BRANCH  14  15
HETATM   15  N2  UNL     1      23.980   3.607  50.560  1.00  0.00    -0.388 N 
HETATM   16  H11 UNL     1      23.142   4.237  50.759  1.00  0.00     0.159 HD
BRANCH  15  17
HETATM   17  C8  UNL     1      25.042   4.253  49.897  1.00  0.00     0.029 A 
HETATM   18  C9  UNL     1      26.296   3.722  49.690  1.00  0.00     0.032 A 
HETATM   19  C10 UNL     1      27.326   4.348  49.020  1.00  0.00     0.046 A 
HETATM   20  C11 UNL     1      27.112   5.609  48.507  1.00  0.00     0.138 A 
HETATM   21  F1  UNL     1      28.103   6.249  47.845  1.00  0.00    -0.204 F 
HETATM   22  C12 UNL     1      25.878   6.176  48.691  1.00  0.00     0.074 A 
HETATM   23 CL1  UNL     1      25.585   7.768  48.052  1.00  0.00    -0.081 Cl
HETATM   24  C13 UNL     1      24.880   5.513  49.366  1.00  0.00     0.056 A 
ENDBRANCH  15  17
ENDBRANCH  14  15
ENDBRANCH   1  14
TORSDOF 6
ENDMDL
MODEL 6
REMARK VINA RESULT:      -6.9      3.626      6.313
REMARK  6 active torsions:
REMARK  status: ('A' for Active; 'I' for Inactive)
REMARK    1  A    between atoms: O1_2  and  C2_3 
REMARK    2  A    between atoms: N1_6  and  C5_7 
REMARK    3  A    between atoms: C5_7  and  C6_8 
REMARK    4  A    between atoms: C5_7  and  C7_10 
REMARK    5  A    between atoms: C7_10  and  N2_11 
REMARK    6  A    between atoms: N2_11  and  C8_12 
ROOT
HETATM    1  C5  UNL     1      24.334   3.591  50.943  1.00  0.00     0.135 C 
ENDROOT
BRANCH   1   2
HETATM    2  N1  UNL     1      23.364   2.534  51.167  1.00  0.00    -0.376 N 
HETATM    3  C4  UNL     1      23.184   2.364  52.593  1.00  0.00     0.152 C 
HETATM    4  C3  UNL     1      23.079   0.950  53.011  1.00  0.00     0.027 C 
HETATM    5  C2  UNL     1      22.126   0.069  52.749  1.00  0.00     0.067 C 
HETATM    6  C16 UNL     1      20.854  -0.085  52.050  1.00  0.00     0.238 C 
HETATM    7  O3  UNL     1      20.744   0.654  50.848  1.00  0.00    -0.355 OA
HETATM    8  C15 UNL     1      21.690   1.076  49.931  1.00  0.00     0.152 C 
HETATM    9  C14 UNL     1      22.741   1.842  50.101  1.00  0.00     0.110 C 
BRANCH   5  10
HETATM   10  O1  UNL     1      22.508  -1.130  53.383  1.00  0.00    -0.358 OA
HETATM   11  C1  UNL     1      22.169  -1.181  54.771  1.00  0.00     0.209 C 
ENDBRANCH   5  10
ENDBRANCH   1   2
BRANCH   1  12
HETATM   12  C6  UNL     1      23.878   4.413  49.809  1.00  0.00     0.417 C 
HETATM   13  O2  UNL     1      23.665   4.591  48.614  1.00  0.00    -0.428 OA
ENDBRANCH   1  12
BRANCH   1  14
HETATM   14  C7  UNL     1      25.705   3.045  50.766  1.00  0.00     0.147 C 
BRANCH  14  15
HETATM   15  N2  UNL     1      26.466   2.864  51.983  1.00  0.00    -0.388 N 
HETATM   16  H11 UNL     1      26.464   3.709  52.634  1.00  0.00     0.159 HD
BRANCH  15  17
HETATM   17  C8  UNL     1      27.214   1.770  52.462  1.00  0.00     0.029 A 
HETATM   18  C9  UNL     1      28.388   1.857  53.177  1.00  0.00     0.032 A 
HETATM   19  C10 UNL     1      29.105   0.785  53.665  1.00  0.00     0.046 A 
HETATM   20  C11 UNL     1      28.633  -0.489  53.432  1.00  0.00     0.138 A 
HETATM   21  F1  UNL     1      29.314  -1.560  53.898  1.00  0.00    -0.204 F 
HETATM   22  C12 UNL     1      27.467  -0.622  52.724  1.00  0.00     0.074 A 
HETATM   23 CL1  UNL     1      26.851  -2.220  52.418  1.00  0.00    -0.081 Cl
HETATM   24  C13 UNL     1      26.785   0.478  52.257  1.00  0.00     0.056 A 
ENDBRANCH  15  17
ENDBRANCH  14  15
ENDBRANCH   1  14
TORSDOF 6
ENDMDL
MODEL 7
REMARK VINA RESULT:      -6.9      3.618      5.993
REMARK  6 active torsions:
REMARK  status: ('A' for Active; 'I' for Inactive)
REMARK    1  A    between atoms: O1_2  and  C2_3 
REMARK    2  A    between atoms: N1_6  and  C5_7 
REMARK    3  A    between atoms: C5_7  and  C6_8 
REMARK    4  A    between atoms: C5_7  and  C7_10 
REMARK    5  A    between atoms: C7_10  and  N2_11 
REMARK    6  A    between atoms: N2_11  and  C8_12 
ROOT
HETATM    1  C5  UNL     1      22.221   2.683  51.151  1.00  0.00     0.135 C 
ENDROOT
BRANCH   1   2
HETATM    2  N1  UNL     1      23.215   3.662  50.745  1.00  0.00    -0.376 N 
HETATM    3  C4  UNL     1      23.814   3.227  49.502  1.00  0.00     0.152 C 
HETATM    4  C3  UNL     1      25.274   3.446  49.440  1.00  0.00     0.027 C 
HETATM    5  C2  UNL     1      25.949   4.585  49.409  1.00  0.00     0.067 C 
HETATM    6  C16 UNL     1      25.771   6.033  49.413  1.00  0.00     0.238 C 
HETATM    7  O3  UNL     1      24.683   6.496  50.191  1.00  0.00    -0.355 OA
HETATM    8  C15 UNL     1      24.068   5.985  51.320  1.00  0.00     0.152 C 
HETATM    9  C14 UNL     1      23.481   4.826  51.503  1.00  0.00     0.110 C 
BRANCH   5  10
HETATM   10  O1  UNL     1      27.313   4.238  49.352  1.00  0.00    -0.358 OA
HETATM   11  C1  UNL     1      28.093   5.101  48.520  1.00  0.00     0.209 C 
ENDBRANCH   5  10
ENDBRANCH   1   2
BRANCH   1  12
HETATM   12  C6  UNL     1      21.335   3.302  52.151  1.00  0.00     0.417 C 
HETATM   13  O2  UNL     1      20.308   3.333  52.821  1.00  0.00    -0.428 OA
ENDBRANCH   1  12
BRANCH   1  14
HETATM   14  C7  UNL     1      22.855   1.423  51.619  1.00  0.00     0.147 C 
BRANCH  14  15
HETATM   15  N2  UNL     1      23.819   1.569  52.688  1.00  0.00    -0.388 N 
HETATM   16  H11 UNL     1      23.482   2.166  53.506  1.00  0.00     0.159 HD
BRANCH  15  17
HETATM   17  C8  UNL     1      25.126   1.066  52.841  1.00  0.00     0.029 A 
HETATM   18  C9  UNL     1      25.494  -0.255  52.711  1.00  0.00     0.032 A 
HETATM   19  C10 UNL     1      26.778  -0.740  52.838  1.00  0.00     0.046 A 
HETATM   20  C11 UNL     1      27.796   0.145  53.119  1.00  0.00     0.138 A 
HETATM   21  F1  UNL     1      29.067  -0.300  53.250  1.00  0.00    -0.204 F 
HETATM   22  C12 UNL     1      27.475   1.470  53.257  1.00  0.00     0.074 A 
HETATM   23 CL1  UNL     1      28.743   2.607  53.613  1.00  0.00    -0.081 Cl
HETATM   24  C13 UNL     1      26.178   1.909  53.121  1.00  0.00     0.056 A 
ENDBRANCH  15  17
ENDBRANCH  14  15
ENDBRANCH   1  14
TORSDOF 6
ENDMDL
MODEL 8
REMARK VINA RESULT:      -6.8      2.251      3.766
REMARK  6 active torsions:
REMARK  status: ('A' for Active; 'I' for Inactive)
REMARK    1  A    between atoms: O1_2  and  C2_3 
REMARK    2  A    between atoms: N1_6  and  C5_7 
REMARK    3  A    between atoms: C5_7  and  C6_8 
REMARK    4  A    between atoms: C5_7  and  C7_10 
REMARK    5  A    between atoms: C7_10  and  N2_11 
REMARK    6  A    between atoms: N2_11  and  C8_12 
ROOT
HETATM    1  C5  UNL     1      22.164   1.959  52.019  1.00  0.00     0.135 C 
ENDROOT
BRANCH   1   2
HETATM    2  N1  UNL     1      22.780   1.012  52.932  1.00  0.00    -0.376 N 
HETATM    3  C4  UNL     1      24.119   1.467  53.240  1.00  0.00     0.152 C 
HETATM    4  C3  UNL     1      25.117   0.379  53.289  1.00  0.00     0.027 C 
HETATM    5  C2  UNL     1      25.222  -0.623  54.148  1.00  0.00     0.067 C 
HETATM    6  C16 UNL     1      24.592  -1.201  55.331  1.00  0.00     0.238 C 
HETATM    7  O3  UNL     1      23.183  -1.081  55.373  1.00  0.00    -0.355 OA
HETATM    8  C15 UNL     1      22.230  -1.008  54.372  1.00  0.00     0.152 C 
HETATM    9  C14 UNL     1      22.101  -0.139  53.398  1.00  0.00     0.110 C 
BRANCH   5  10
HETATM   10  O1  UNL     1      26.345  -1.374  53.750  1.00  0.00    -0.358 OA
HETATM   11  C1  UNL     1      27.045  -0.815  52.635  1.00  0.00     0.209 C 
ENDBRANCH   5  10
ENDBRANCH   1   2
BRANCH   1  12
HETATM   12  C6  UNL     1      22.165   1.375  50.668  1.00  0.00     0.417 C 
HETATM   13  O2  UNL     1      22.134   1.468  49.445  1.00  0.00    -0.428 OA
ENDBRANCH   1  12
BRANCH   1  14
HETATM   14  C7  UNL     1      22.818   3.291  52.091  1.00  0.00     0.147 C 
BRANCH  14  15
HETATM   15  N2  UNL     1      23.179   3.878  50.818  1.00  0.00    -0.388 N 
HETATM   16  H11 UNL     1      22.348   4.197  50.229  1.00  0.00     0.159 HD
BRANCH  15  17
HETATM   17  C8  UNL     1      24.433   4.100  50.214  1.00  0.00     0.029 A 
HETATM   18  C9  UNL     1      25.476   3.201  50.187  1.00  0.00     0.032 A 
HETATM   19  C10 UNL     1      26.693   3.413  49.574  1.00  0.00     0.046 A 
HETATM   20  C11 UNL     1      26.912   4.612  48.931  1.00  0.00     0.138 A 
HETATM   21  F1  UNL     1      28.095   4.850  48.322  1.00  0.00    -0.204 F 
HETATM   22  C12 UNL     1      25.899   5.536  48.935  1.00  0.00     0.074 A 
HETATM   23 CL1  UNL     1      26.152   7.058  48.130  1.00  0.00    -0.081 Cl
HETATM   24  C13 UNL     1      24.700   5.281  49.559  1.00  0.00     0.056 A 
ENDBRANCH  15  17
ENDBRANCH  14  15
ENDBRANCH   1  14
TORSDOF 6
ENDMDL
MODEL 9
REMARK VINA RESULT:      -6.7      4.002      6.779
REMARK  6 active torsions:
REMARK  status: ('A' for Active; 'I' for Inactive)
REMARK    1  A    between atoms: O1_2  and  C2_3 
REMARK    2  A    between atoms: N1_6  and  C5_7 
REMARK    3  A    between atoms: C5_7  and  C6_8 
REMARK    4  A    between atoms: C5_7  and  C7_10 
REMARK    5  A    between atoms: C7_10  and  N2_11 
REMARK    6  A    between atoms: N2_11  and  C8_12 
ROOT
HETATM    1  C5  UNL     1      22.490  -0.542  53.305  1.00  0.00     0.135 C 
ENDROOT
BRANCH   1   2
HETATM    2  N1  UNL     1      21.149  -0.360  52.777  1.00  0.00    -0.376 N 
HETATM    3  C4  UNL     1      21.246   0.183  51.440  1.00  0.00     0.152 C 
HETATM    4  C3  UNL     1      20.241   1.227  51.150  1.00  0.00     0.027 C 
HETATM    5  C2  UNL     1      18.926   1.118  51.049  1.00  0.00     0.067 C 
HETATM    6  C16 UNL     1      17.837   0.149  51.132  1.00  0.00     0.238 C 
HETATM    7  O3  UNL     1      18.025  -0.876  52.089  1.00  0.00    -0.355 OA
HETATM    8  C15 UNL     1      18.721  -0.909  53.285  1.00  0.00     0.152 C 
HETATM    9  C14 UNL     1      19.993  -0.694  53.522  1.00  0.00     0.110 C 
BRANCH   5  10
HETATM   10  O1  UNL     1      18.440   2.408  50.761  1.00  0.00    -0.358 OA
HETATM   11  C1  UNL     1      19.229   3.460  51.323  1.00  0.00     0.209 C 
ENDBRANCH   5  10
ENDBRANCH   1   2
BRANCH   1  12
HETATM   12  C6  UNL     1      22.386  -1.088  54.669  1.00  0.00     0.417 C 
HETATM   13  O2  UNL     1      22.880  -1.476  55.723  1.00  0.00    -0.428 OA
ENDBRANCH   1  12
BRANCH   1  14
HETATM   14  C7  UNL     1      23.282   0.712  53.227  1.00  0.00     0.147 C 
BRANCH  14  15
HETATM   15  N2  UNL     1      24.474   0.647  52.410  1.00  0.00    -0.388 N 
HETATM   16  H11 UNL     1      24.309   0.834  51.372  1.00  0.00     0.159 HD
BRANCH  15  17
HETATM   17  C8  UNL     1      25.818   0.378  52.739  1.00  0.00     0.029 A 
HETATM   18  C9  UNL     1      26.409  -0.867  52.728  1.00  0.00     0.032 A 
HETATM   19  C10 UNL     1      27.730  -1.124  53.026  1.00  0.00     0.046 A 
HETATM   20  C11 UNL     1      28.549  -0.070  53.369  1.00  0.00     0.138 A 
HETATM   21  F1  UNL     1      29.850  -0.290  53.667  1.00  0.00    -0.204 F 
HETATM   22  C12 UNL     1      28.002   1.187  53.393  1.00  0.00     0.074 A 
HETATM   23 CL1  UNL     1      29.017   2.534  53.822  1.00  0.00    -0.081 Cl
HETATM   24  C13 UNL     1      26.677   1.396  53.086  1.00  0.00     0.056 A 
ENDBRANCH  15  17
ENDBRANCH  14  15
ENDBRANCH   1  14
TORSDOF 6
ENDMDL
