MODEL 1
REMARK VINA RESULT:      -9.1      0.000      0.000
REMARK  6 active torsions:
REMARK  status: ('A' for Active; 'I' for Inactive)
REMARK       I    between atoms: C1_2  and  N1_3 
REMARK       I    between atoms: C1_2  and  N2_9 
REMARK    1  A    between atoms: N1_3  and  C2_4 
REMARK    2  A    between atoms: N2_9  and  C7_10 
REMARK    3  A    between atoms: N2_9  and  C14_18 
REMARK    4  A    between atoms: C7_10  and  C8_11 
REMARK    5  A    between atoms: C14_18  and  C15_19 
REMARK    6  A    between atoms: C20_25  and  O2_26 
ROOT
HETATM    1  O1  UNL     1      22.210   1.340  50.519  1.00  0.00    -0.247 OA
HETATM    2  C1  UNL     1      23.151   1.683  51.320  1.00  0.00     0.319 C 
HETATM    3  N1  UNL     1      22.772   0.972  52.486  1.00  0.00    -0.332 N 
HETATM    4  N2  UNL     1      24.307   2.547  51.163  1.00  0.00    -0.326 N 
HETATM    5  H1  UNL     1      23.295   1.019  53.374  1.00  0.00     0.165 HD
ENDROOT
BRANCH   4   6
HETATM    6  C7  UNL     1      24.247   3.065  49.816  1.00  0.00     0.166 C 
BRANCH   6   7
HETATM    7  C8  UNL     1      25.301   3.992  49.408  1.00  0.00    -0.040 A 
HETATM    8  C9  UNL     1      26.646   3.733  49.280  1.00  0.00     0.012 A 
HETATM    9  C10 UNL     1      27.601   4.631  48.860  1.00  0.00     0.043 A 
HETATM   10  C11 UNL     1      27.244   5.910  48.526  1.00  0.00     0.116 A 
HETATM   11  F1  UNL     1      28.175   6.795  48.117  1.00  0.00    -0.206 F 
HETATM   12  C12 UNL     1      25.915   6.259  48.623  1.00  0.00     0.043 A 
HETATM   13  C13 UNL     1      25.019   5.307  49.049  1.00  0.00     0.012 A 
ENDBRANCH   6   7
ENDBRANCH   4   6
BRANCH   4  14
HETATM   14  C14 UNL     1      25.107   2.613  52.372  1.00  0.00     0.169 C 
BRANCH  14  15
HETATM   15  C15 UNL     1      26.061   1.533  52.580  1.00  0.00    -0.005 A 
HETATM   16  C16 UNL     1      26.088   0.266  52.089  1.00  0.00     0.012 A 
HETATM   17  C17 UNL     1      27.039  -0.707  52.299  1.00  0.00     0.002 A 
HETATM   18  C18 UNL     1      28.119  -0.397  53.104  1.00  0.00     0.026 A 
HETATM   19  C19 UNL     1      28.180   0.870  53.652  1.00  0.00     0.067 A 
HETATM   20 CL1  UNL     1      29.575   1.173  54.654  1.00  0.00    -0.081 Cl
HETATM   21  C20 UNL     1      27.175   1.798  53.391  1.00  0.00     0.095 A 
BRANCH  21  22
HETATM   22  O2  UNL     1      27.427   2.993  54.038  1.00  0.00    -0.358 OA
HETATM   23  H18 UNL     1      27.019   3.320  54.885  1.00  0.00     0.217 HD
ENDBRANCH  21  22
ENDBRANCH  14  15
ENDBRANCH   4  14
BRANCH   3  24
HETATM   24  C2  UNL     1      21.666   0.106  52.724  1.00  0.00     0.132 A 
HETATM   25  C3  UNL     1      20.787   0.666  53.782  1.00  0.00     0.002 A 
HETATM   26  C4  UNL     1      20.752  -0.102  54.843  1.00  0.00    -0.002 A 
HETATM   27  C5  UNL     1      21.611  -1.272  54.608  1.00  0.00    -0.002 A 
HETATM   28  C6  UNL     1      22.133  -1.147  53.393  1.00  0.00     0.002 A 
ENDBRANCH   3  24
TORSDOF 6
ENDMDL
MODEL 2
REMARK VINA RESULT:      -8.8      3.422      6.449
REMARK  6 active torsions:
REMARK  status: ('A' for Active; 'I' for Inactive)
REMARK       I    between atoms: C1_2  and  N1_3 
REMARK       I    between atoms: C1_2  and  N2_9 
REMARK    1  A    between atoms: N1_3  and  C2_4 
REMARK    2  A    between atoms: N2_9  and  C7_10 
REMARK    3  A    between atoms: N2_9  and  C14_18 
REMARK    4  A    between atoms: C7_10  and  C8_11 
REMARK    5  A    between atoms: C14_18  and  C15_19 
REMARK    6  A    between atoms: C20_25  and  O2_26 
ROOT
HETATM    1  O1  UNL     1      26.941   2.919  50.385  1.00  0.00    -0.247 OA
HETATM    2  C1  UNL     1      26.048   2.853  51.303  1.00  0.00     0.319 C 
HETATM    3  N1  UNL     1      24.894   3.229  50.572  1.00  0.00    -0.332 N 
HETATM    4  N2  UNL     1      26.113   2.505  52.712  1.00  0.00    -0.326 N 
HETATM    5  H1  UNL     1      23.956   3.311  50.994  1.00  0.00     0.165 HD
ENDROOT
BRANCH   4   6
HETATM    6  C7  UNL     1      27.501   2.229  52.998  1.00  0.00     0.166 C 
BRANCH   6   7
HETATM    7  C8  UNL     1      27.896   0.826  53.100  1.00  0.00    -0.040 A 
HETATM    8  C9  UNL     1      27.211  -0.277  52.645  1.00  0.00     0.012 A 
HETATM    9  C10 UNL     1      27.638  -1.582  52.734  1.00  0.00     0.043 A 
HETATM   10  C11 UNL     1      28.842  -1.874  53.316  1.00  0.00     0.116 A 
HETATM   11  F1  UNL     1      29.266  -3.151  53.409  1.00  0.00    -0.206 F 
HETATM   12  C12 UNL     1      29.600  -0.830  53.801  1.00  0.00     0.043 A 
HETATM   13  C13 UNL     1      29.107   0.447  53.675  1.00  0.00     0.012 A 
ENDBRANCH   6   7
ENDBRANCH   4   6
BRANCH   4  14
HETATM   14  C14 UNL     1      24.809   2.559  53.347  1.00  0.00     0.169 C 
BRANCH  14  15
HETATM   15  C15 UNL     1      23.982   1.366  53.237  1.00  0.00    -0.005 A 
HETATM   16  C16 UNL     1      24.173   0.108  53.715  1.00  0.00     0.012 A 
HETATM   17  C17 UNL     1      23.335  -0.979  53.603  1.00  0.00     0.002 A 
HETATM   18  C18 UNL     1      22.141  -0.812  52.928  1.00  0.00     0.026 A 
HETATM   19  C19 UNL     1      21.858   0.435  52.404  1.00  0.00     0.067 A 
HETATM   20 CL1  UNL     1      20.332   0.552  51.568  1.00  0.00    -0.081 Cl
HETATM   21  C20 UNL     1      22.760   1.484  52.559  1.00  0.00     0.095 A 
BRANCH  21  22
HETATM   22  O2  UNL     1      22.286   2.634  51.957  1.00  0.00    -0.358 OA
HETATM   23  H18 UNL     1      22.607   3.050  51.112  1.00  0.00     0.217 HD
ENDBRANCH  21  22
ENDBRANCH  14  15
ENDBRANCH   4  14
BRANCH   3  24
HETATM   24  C2  UNL     1      24.741   3.579  49.199  1.00  0.00     0.132 A 
HETATM   25  C3  UNL     1      24.549   5.044  49.056  1.00  0.00     0.002 A 
HETATM   26  C4  UNL     1      23.369   5.335  48.564  1.00  0.00    -0.002 A 
HETATM   27  C5  UNL     1      22.637   4.083  48.322  1.00  0.00    -0.002 A 
HETATM   28  C6  UNL     1      23.426   3.080  48.688  1.00  0.00     0.002 A 
ENDBRANCH   3  24
TORSDOF 6
ENDMDL
MODEL 3
REMARK VINA RESULT:      -8.8      3.321      5.570
REMARK  6 active torsions:
REMARK  status: ('A' for Active; 'I' for Inactive)
REMARK       I    between atoms: C1_2  and  N1_3 
REMARK       I    between atoms: C1_2  and  N2_9 
REMARK    1  A    between atoms: N1_3  and  C2_4 
REMARK    2  A    between atoms: N2_9  and  C7_10 
REMARK    3  A    between atoms: N2_9  and  C14_18 
REMARK    4  A    between atoms: C7_10  and  C8_11 
REMARK    5  A    between atoms: C14_18  and  C15_19 
REMARK    6  A    between atoms: C20_25  and  O2_26 
ROOT
HETATM    1  O1  UNL     1      22.438  -1.167  52.754  1.00  0.00    -0.247 OA
HETATM    2  C1  UNL     1      22.879   0.036  52.803  1.00  0.00     0.319 C 
HETATM    3  N1  UNL     1      21.893   0.706  52.037  1.00  0.00    -0.332 N 
HETATM    4  N2  UNL     1      24.045   0.629  53.435  1.00  0.00    -0.326 N 
HETATM    5  H1  UNL     1      21.923   1.717  51.833  1.00  0.00     0.165 HD
ENDROOT
BRANCH   4   6
HETATM    6  C7  UNL     1      24.758  -0.455  54.068  1.00  0.00     0.166 C 
BRANCH   6   7
HETATM    7  C8  UNL     1      26.218  -0.431  53.990  1.00  0.00    -0.040 A 
HETATM    8  C9  UNL     1      27.091   0.285  54.776  1.00  0.00     0.012 A 
HETATM    9  C10 UNL     1      28.464   0.252  54.686  1.00  0.00     0.043 A 
HETATM   10  C11 UNL     1      29.075  -0.543  53.754  1.00  0.00     0.116 A 
HETATM   11  F1  UNL     1      30.419  -0.578  53.660  1.00  0.00    -0.206 F 
HETATM   12  C12 UNL     1      28.278  -1.299  52.922  1.00  0.00     0.043 A 
HETATM   13  C13 UNL     1      26.913  -1.213  53.071  1.00  0.00     0.012 A 
ENDBRANCH   6   7
ENDBRANCH   4   6
BRANCH   4  14
HETATM   14  C14 UNL     1      24.111   2.063  53.219  1.00  0.00     0.169 C 
BRANCH  14  15
HETATM   15  C15 UNL     1      24.794   2.508  52.013  1.00  0.00    -0.005 A 
HETATM   16  C16 UNL     1      26.081   2.340  51.609  1.00  0.00     0.012 A 
HETATM   17  C17 UNL     1      26.664   2.761  50.435  1.00  0.00     0.002 A 
HETATM   18  C18 UNL     1      25.878   3.445  49.527  1.00  0.00     0.026 A 
HETATM   19  C19 UNL     1      24.553   3.667  49.851  1.00  0.00     0.067 A 
HETATM   20 CL1  UNL     1      23.638   4.537  48.648  1.00  0.00    -0.081 Cl
HETATM   21  C20 UNL     1      24.038   3.208  51.061  1.00  0.00     0.095 A 
BRANCH  21  22
HETATM   22  O2  UNL     1      22.703   3.539  51.185  1.00  0.00    -0.358 OA
HETATM   23  H18 UNL     1      22.317   4.332  51.647  1.00  0.00     0.217 HD
ENDBRANCH  21  22
ENDBRANCH  14  15
ENDBRANCH   4  14
BRANCH   3  24
HETATM   24  C2  UNL     1      20.726   0.207  51.390  1.00  0.00     0.132 A 
HETATM   25  C3  UNL     1      20.543   0.864  50.072  1.00  0.00     0.002 A 
HETATM   26  C4  UNL     1      19.442   1.575  50.030  1.00  0.00    -0.002 A 
HETATM   27  C5  UNL     1      18.762   1.469  51.329  1.00  0.00    -0.002 A 
HETATM   28  C6  UNL     1      19.502   0.685  52.105  1.00  0.00     0.002 A 
ENDBRANCH   3  24
TORSDOF 6
ENDMDL
MODEL 4
REMARK VINA RESULT:      -8.6      3.917      6.181
REMARK  6 active torsions:
REMARK  status: ('A' for Active; 'I' for Inactive)
REMARK       I    between atoms: C1_2  and  N1_3 
REMARK       I    between atoms: C1_2  and  N2_9 
REMARK    1  A    between atoms: N1_3  and  C2_4 
REMARK    2  A    between atoms: N2_9  and  C7_10 
REMARK    3  A    between atoms: N2_9  and  C14_18 
REMARK    4  A    between atoms: C7_10  and  C8_11 
REMARK    5  A    between atoms: C14_18  and  C15_19 
REMARK    6  A    between atoms: C20_25  and  O2_26 
ROOT
HETATM    1  O1  UNL     1      23.690   4.640  52.698  1.00  0.00    -0.247 OA
HETATM    2  C1  UNL     1      23.569   3.401  52.388  1.00  0.00     0.319 C 
HETATM    3  N1  UNL     1      22.466   3.461  51.501  1.00  0.00    -0.332 N 
HETATM    4  N2  UNL     1      24.304   2.214  52.787  1.00  0.00    -0.326 N 
HETATM    5  H1  UNL     1      22.054   2.630  51.051  1.00  0.00     0.165 HD
ENDROOT
BRANCH   4   6
HETATM    6  C7  UNL     1      25.311   2.655  53.723  1.00  0.00     0.166 C 
BRANCH   6   7
HETATM    7  C8  UNL     1      26.543   1.872  53.798  1.00  0.00    -0.040 A 
HETATM    8  C9  UNL     1      27.784   2.205  53.306  1.00  0.00     0.012 A 
HETATM    9  C10 UNL     1      28.927   1.449  53.429  1.00  0.00     0.043 A 
HETATM   10  C11 UNL     1      28.892   0.249  54.087  1.00  0.00     0.116 A 
HETATM   11  F1  UNL     1      30.007  -0.498  54.208  1.00  0.00    -0.206 F 
HETATM   12  C12 UNL     1      27.689  -0.167  54.615  1.00  0.00     0.043 A 
HETATM   13  C13 UNL     1      26.590   0.643  54.453  1.00  0.00     0.012 A 
ENDBRANCH   6   7
ENDBRANCH   4   6
BRANCH   4  14
HETATM   14  C14 UNL     1      23.794   1.016  52.144  1.00  0.00     0.169 C 
BRANCH  14  15
HETATM   15  C15 UNL     1      22.936   0.161  52.950  1.00  0.00    -0.005 A 
HETATM   16  C16 UNL     1      23.225  -0.648  54.004  1.00  0.00     0.012 A 
HETATM   17  C17 UNL     1      22.359  -1.415  54.749  1.00  0.00     0.002 A 
HETATM   18  C18 UNL     1      21.017  -1.388  54.418  1.00  0.00     0.026 A 
HETATM   19  C19 UNL     1      20.624  -0.593  53.358  1.00  0.00     0.067 A 
HETATM   20 CL1  UNL     1      18.915  -0.621  53.011  1.00  0.00    -0.081 Cl
HETATM   21  C20 UNL     1      21.564   0.153  52.652  1.00  0.00     0.095 A 
BRANCH  21  22
HETATM   22  O2  UNL     1      20.963   0.867  51.634  1.00  0.00    -0.358 OA
HETATM   23  H18 UNL     1      19.992   1.053  51.517  1.00  0.00     0.217 HD
ENDBRANCH  21  22
ENDBRANCH  14  15
ENDBRANCH   4  14
BRANCH   3  24
HETATM   24  C2  UNL     1      21.695   4.574  51.056  1.00  0.00     0.132 A 
HETATM   25  C3  UNL     1      20.253   4.345  51.322  1.00  0.00     0.002 A 
HETATM   26  C4  UNL     1      19.557   4.280  50.213  1.00  0.00    -0.002 A 
HETATM   27  C5  UNL     1      20.468   4.460  49.073  1.00  0.00    -0.002 A 
HETATM   28  C6  UNL     1      21.692   4.627  49.561  1.00  0.00     0.002 A 
ENDBRANCH   3  24
TORSDOF 6
ENDMDL
MODEL 5
REMARK VINA RESULT:      -8.5      3.124      5.773
REMARK  6 active torsions:
REMARK  status: ('A' for Active; 'I' for Inactive)
REMARK       I    between atoms: C1_2  and  N1_3 
REMARK       I    between atoms: C1_2  and  N2_9 
REMARK    1  A    between atoms: N1_3  and  C2_4 
REMARK    2  A    between atoms: N2_9  and  C7_10 
REMARK    3  A    between atoms: N2_9  and  C14_18 
REMARK    4  A    between atoms: C7_10  and  C8_11 
REMARK    5  A    between atoms: C14_18  and  C15_19 
REMARK    6  A    between atoms: C20_25  and  O2_26 
ROOT
HETATM    1  O1  UNL     1      23.926  -0.621  53.187  1.00  0.00    -0.247 OA
HETATM    2  C1  UNL     1      24.111   0.647  53.110  1.00  0.00     0.319 C 
HETATM    3  N1  UNL     1      25.462   0.738  53.526  1.00  0.00    -0.332 N 
HETATM    4  N2  UNL     1      23.241   1.744  52.723  1.00  0.00    -0.326 N 
HETATM    5  H1  UNL     1      25.970   1.632  53.612  1.00  0.00     0.165 HD
ENDROOT
BRANCH   4   6
HETATM    6  C7  UNL     1      21.959   1.155  52.416  1.00  0.00     0.166 C 
BRANCH   6   7
HETATM    7  C8  UNL     1      21.344   1.520  51.140  1.00  0.00    -0.040 A 
HETATM    8  C9  UNL     1      20.223   2.290  50.936  1.00  0.00     0.012 A 
HETATM    9  C10 UNL     1      19.697   2.636  49.713  1.00  0.00     0.043 A 
HETATM   10  C11 UNL     1      20.296   2.206  48.559  1.00  0.00     0.116 A 
HETATM   11  F1  UNL     1      19.784   2.539  47.357  1.00  0.00    -0.206 F 
HETATM   12  C12 UNL     1      21.428   1.428  48.666  1.00  0.00     0.043 A 
HETATM   13  C13 UNL     1      21.895   1.125  49.924  1.00  0.00     0.012 A 
ENDBRANCH   6   7
ENDBRANCH   4   6
BRANCH   4  14
HETATM   14  C14 UNL     1      23.921   3.024  52.782  1.00  0.00     0.169 C 
BRANCH  14  15
HETATM   15  C15 UNL     1      24.111   3.718  51.516  1.00  0.00    -0.005 A 
HETATM   16  C16 UNL     1      23.252   4.469  50.778  1.00  0.00     0.012 A 
HETATM   17  C17 UNL     1      23.501   5.129  49.595  1.00  0.00     0.002 A 
HETATM   18  C18 UNL     1      24.771   5.041  49.057  1.00  0.00     0.026 A 
HETATM   19  C19 UNL     1      25.716   4.297  49.736  1.00  0.00     0.067 A 
HETATM   20 CL1  UNL     1      27.288   4.242  48.984  1.00  0.00    -0.081 Cl
HETATM   21  C20 UNL     1      25.384   3.658  50.928  1.00  0.00     0.095 A 
BRANCH  21  22
HETATM   22  O2  UNL     1      26.468   2.968  51.436  1.00  0.00    -0.358 OA
HETATM   23  H18 UNL     1      26.778   2.057  51.181  1.00  0.00     0.217 HD
ENDBRANCH  21  22
ENDBRANCH  14  15
ENDBRANCH   4  14
BRANCH   3  24
HETATM   24  C2  UNL     1      26.382  -0.278  53.916  1.00  0.00     0.132 A 
HETATM   25  C3  UNL     1      27.231   0.194  55.038  1.00  0.00     0.002 A 
HETATM   26  C4  UNL     1      28.494   0.265  54.698  1.00  0.00    -0.002 A 
HETATM   27  C5  UNL     1      28.630  -0.157  53.296  1.00  0.00    -0.002 A 
HETATM   28  C6  UNL     1      27.417  -0.466  52.852  1.00  0.00     0.002 A 
ENDBRANCH   3  24
TORSDOF 6
ENDMDL
MODEL 6
REMARK VINA RESULT:      -8.3      3.391      5.999
REMARK  6 active torsions:
REMARK  status: ('A' for Active; 'I' for Inactive)
REMARK       I    between atoms: C1_2  and  N1_3 
REMARK       I    between atoms: C1_2  and  N2_9 
REMARK    1  A    between atoms: N1_3  and  C2_4 
REMARK    2  A    between atoms: N2_9  and  C7_10 
REMARK    3  A    between atoms: N2_9  and  C14_18 
REMARK    4  A    between atoms: C7_10  and  C8_11 
REMARK    5  A    between atoms: C14_18  and  C15_19 
REMARK    6  A    between atoms: C20_25  and  O2_26 
ROOT
HETATM    1  O1  UNL     1      24.547   1.908  53.396  1.00  0.00    -0.247 OA
HETATM    2  C1  UNL     1      24.887   2.091  52.173  1.00  0.00     0.319 C 
HETATM    3  N1  UNL     1      23.627   1.986  51.534  1.00  0.00    -0.332 N 
HETATM    4  N2  UNL     1      26.170   2.338  51.537  1.00  0.00    -0.326 N 
HETATM    5  H1  UNL     1      23.501   2.062  50.512  1.00  0.00     0.165 HD
ENDROOT
BRANCH   4   6
HETATM    6  C7  UNL     1      27.155   2.326  52.593  1.00  0.00     0.166 C 
BRANCH   6   7
HETATM    7  C8  UNL     1      27.839   1.060  52.855  1.00  0.00    -0.040 A 
HETATM    8  C9  UNL     1      29.095   0.877  53.386  1.00  0.00     0.012 A 
HETATM    9  C10 UNL     1      29.687  -0.338  53.646  1.00  0.00     0.043 A 
HETATM   10  C11 UNL     1      29.021  -1.502  53.374  1.00  0.00     0.116 A 
HETATM   11  F1  UNL     1      29.597  -2.695  53.624  1.00  0.00    -0.206 F 
HETATM   12  C12 UNL     1      27.753  -1.415  52.840  1.00  0.00     0.043 A 
HETATM   13  C13 UNL     1      27.227  -0.166  52.608  1.00  0.00     0.012 A 
ENDBRANCH   6   7
ENDBRANCH   4   6
BRANCH   4  14
HETATM   14  C14 UNL     1      26.044   2.499  50.100  1.00  0.00     0.169 C 
BRANCH  14  15
HETATM   15  C15 UNL     1      26.351   3.817  49.564  1.00  0.00    -0.005 A 
HETATM   16  C16 UNL     1      27.483   4.299  48.987  1.00  0.00     0.012 A 
HETATM   17  C17 UNL     1      27.704   5.555  48.469  1.00  0.00     0.002 A 
HETATM   18  C18 UNL     1      26.671   6.471  48.523  1.00  0.00     0.026 A 
HETATM   19  C19 UNL     1      25.477   6.073  49.093  1.00  0.00     0.067 A 
HETATM   20 CL1  UNL     1      24.231   7.293  49.118  1.00  0.00    -0.081 Cl
HETATM   21  C20 UNL     1      25.333   4.783  49.596  1.00  0.00     0.095 A 
BRANCH  21  22
HETATM   22  O2  UNL     1      24.070   4.597  50.125  1.00  0.00    -0.358 OA
HETATM   23  H18 UNL     1      23.251   4.303  49.642  1.00  0.00     0.217 HD
ENDBRANCH  21  22
ENDBRANCH  14  15
ENDBRANCH   4  14
BRANCH   3  24
HETATM   24  C2  UNL     1      22.331   1.752  52.076  1.00  0.00     0.132 A 
HETATM   25  C3  UNL     1      21.782   0.469  51.570  1.00  0.00     0.002 A 
HETATM   26  C4  UNL     1      20.706   0.651  50.844  1.00  0.00    -0.002 A 
HETATM   27  C5  UNL     1      20.416   2.092  50.783  1.00  0.00    -0.002 A 
HETATM   28  C6  UNL     1      21.350   2.717  51.490  1.00  0.00     0.002 A 
ENDBRANCH   3  24
TORSDOF 6
ENDMDL
MODEL 7
REMARK VINA RESULT:      -8.2      3.188      5.734
REMARK  6 active torsions:
REMARK  status: ('A' for Active; 'I' for Inactive)
REMARK       I    between atoms: C1_2  and  N1_3 
REMARK       I    between atoms: C1_2  and  N2_9 
REMARK    1  A    between atoms: N1_3  and  C2_4 
REMARK    2  A    between atoms: N2_9  and  C7_10 
REMARK    3  A    between atoms: N2_9  and  C14_18 
REMARK    4  A    between atoms: C7_10  and  C8_11 
REMARK    5  A    between atoms: C14_18  and  C15_19 
REMARK    6  A    between atoms: C20_25  and  O2_26 
ROOT
HETATM    1  O1  UNL     1      26.942   2.480  50.524  1.00  0.00    -0.247 OA
HETATM    2  C1  UNL     1      26.003   2.653  51.381  1.00  0.00     0.319 C 
HETATM    3  N1  UNL     1      26.561   2.008  52.512  1.00  0.00    -0.332 N 
HETATM    4  N2  UNL     1      24.708   3.305  51.299  1.00  0.00    -0.326 N 
HETATM    5  H1  UNL     1      26.071   1.923  53.416  1.00  0.00     0.165 HD
ENDROOT
BRANCH   4   6
HETATM    6  C7  UNL     1      24.578   3.780  49.942  1.00  0.00     0.166 C 
BRANCH   6   7
HETATM    7  C8  UNL     1      23.304   3.535  49.266  1.00  0.00    -0.040 A 
HETATM    8  C9  UNL     1      22.352   4.460  48.904  1.00  0.00     0.012 A 
HETATM    9  C10 UNL     1      21.179   4.186  48.240  1.00  0.00     0.043 A 
HETATM   10  C11 UNL     1      20.874   2.902  47.879  1.00  0.00     0.116 A 
HETATM   11  F1  UNL     1      19.725   2.627  47.230  1.00  0.00    -0.206 F 
HETATM   12  C12 UNL     1      21.772   1.907  48.200  1.00  0.00     0.043 A 
HETATM   13  C13 UNL     1      22.924   2.257  48.865  1.00  0.00     0.012 A 
ENDBRANCH   6   7
ENDBRANCH   4   6
BRANCH   4  14
HETATM   14  C14 UNL     1      23.993   3.256  52.561  1.00  0.00     0.169 C 
BRANCH  14  15
HETATM   15  C15 UNL     1      22.795   2.431  52.598  1.00  0.00    -0.005 A 
HETATM   16  C16 UNL     1      21.510   2.715  52.253  1.00  0.00     0.012 A 
HETATM   17  C17 UNL     1      20.418   1.877  52.282  1.00  0.00     0.002 A 
HETATM   18  C18 UNL     1      20.608   0.576  52.709  1.00  0.00     0.026 A 
HETATM   19  C19 UNL     1      21.882   0.193  53.083  1.00  0.00     0.067 A 
HETATM   20 CL1  UNL     1      22.027  -1.463  53.608  1.00  0.00    -0.081 Cl
HETATM   21  C20 UNL     1      22.935   1.102  53.026  1.00  0.00     0.095 A 
BRANCH  21  22
HETATM   22  O2  UNL     1      24.114   0.518  53.446  1.00  0.00    -0.358 OA
HETATM   23  H18 UNL     1      24.287   0.062  54.315  1.00  0.00     0.217 HD
ENDBRANCH  21  22
ENDBRANCH  14  15
ENDBRANCH   4  14
BRANCH   3  24
HETATM   24  C2  UNL     1      27.815   1.352  52.679  1.00  0.00     0.132 A 
HETATM   25  C3  UNL     1      27.655   0.132  53.511  1.00  0.00     0.002 A 
HETATM   26  C4  UNL     1      28.315   0.222  54.639  1.00  0.00    -0.002 A 
HETATM   27  C5  UNL     1      28.995   1.525  54.686  1.00  0.00    -0.002 A 
HETATM   28  C6  UNL     1      28.705   2.168  53.561  1.00  0.00     0.002 A 
ENDBRANCH   3  24
TORSDOF 6
ENDMDL
MODEL 8
REMARK VINA RESULT:      -8.0      3.492      6.663
REMARK  6 active torsions:
REMARK  status: ('A' for Active; 'I' for Inactive)
REMARK       I    between atoms: C1_2  and  N1_3 
REMARK       I    between atoms: C1_2  and  N2_9 
REMARK    1  A    between atoms: N1_3  and  C2_4 
REMARK    2  A    between atoms: N2_9  and  C7_10 
REMARK    3  A    between atoms: N2_9  and  C14_18 
REMARK    4  A    between atoms: C7_10  and  C8_11 
REMARK    5  A    between atoms: C14_18  and  C15_19 
REMARK    6  A    between atoms: C20_25  and  O2_26 
ROOT
HETATM    1  O1  UNL     1      24.337   2.764  53.582  1.00  0.00    -0.247 OA
HETATM    2  C1  UNL     1      24.742   2.895  52.372  1.00  0.00     0.319 C 
HETATM    3  N1  UNL     1      26.084   2.461  52.499  1.00  0.00    -0.332 N 
HETATM    4  N2  UNL     1      24.084   3.353  51.161  1.00  0.00    -0.326 N 
HETATM    5  H1  UNL     1      26.752   2.445  51.712  1.00  0.00     0.165 HD
ENDROOT
BRANCH   4   6
HETATM    6  C7  UNL     1      22.739   3.715  51.542  1.00  0.00     0.166 C 
BRANCH   6   7
HETATM    7  C8  UNL     1      21.726   2.662  51.504  1.00  0.00    -0.040 A 
HETATM    8  C9  UNL     1      20.854   2.297  52.503  1.00  0.00     0.012 A 
HETATM    9  C10 UNL     1      19.892   1.317  52.412  1.00  0.00     0.043 A 
HETATM   10  C11 UNL     1      19.740   0.607  51.252  1.00  0.00     0.116 A 
HETATM   11  F1  UNL     1      18.801  -0.356  51.156  1.00  0.00    -0.206 F 
HETATM   12  C12 UNL     1      20.571   0.905  50.194  1.00  0.00     0.043 A 
HETATM   13  C13 UNL     1      21.508   1.898  50.360  1.00  0.00     0.012 A 
ENDBRANCH   6   7
ENDBRANCH   4   6
BRANCH   4  14
HETATM   14  C14 UNL     1      24.967   3.307  50.010  1.00  0.00     0.169 C 
BRANCH  14  15
HETATM   15  C15 UNL     1      25.198   4.565  49.317  1.00  0.00    -0.005 A 
HETATM   16  C16 UNL     1      24.322   5.469  48.802  1.00  0.00     0.012 A 
HETATM   17  C17 UNL     1      24.602   6.664  48.179  1.00  0.00     0.002 A 
HETATM   18  C18 UNL     1      25.928   7.029  48.039  1.00  0.00     0.026 A 
HETATM   19  C19 UNL     1      26.894   6.173  48.531  1.00  0.00     0.067 A 
HETATM   20 CL1  UNL     1      28.538   6.713  48.311  1.00  0.00    -0.081 Cl
HETATM   21  C20 UNL     1      26.528   4.979  49.149  1.00  0.00     0.095 A 
BRANCH  21  22
HETATM   22  O2  UNL     1      27.643   4.275  49.560  1.00  0.00    -0.358 OA
HETATM   23  H18 UNL     1      28.585   4.597  49.590  1.00  0.00     0.217 HD
ENDBRANCH  21  22
ENDBRANCH  14  15
ENDBRANCH   4  14
BRANCH   3  24
HETATM   24  C2  UNL     1      26.804   1.996  53.637  1.00  0.00     0.132 A 
HETATM   25  C3  UNL     1      28.245   2.328  53.511  1.00  0.00     0.002 A 
HETATM   26  C4  UNL     1      28.989   1.252  53.442  1.00  0.00    -0.002 A 
HETATM   27  C5  UNL     1      28.118   0.070  53.515  1.00  0.00    -0.002 A 
HETATM   28  C6  UNL     1      26.867   0.501  53.626  1.00  0.00     0.002 A 
ENDBRANCH   3  24
TORSDOF 6
ENDMDL
MODEL 9
REMARK VINA RESULT:      -8.0      3.455      5.708
REMARK  6 active torsions:
REMARK  status: ('A' for Active; 'I' for Inactive)
REMARK       I    between atoms: C1_2  and  N1_3 
REMARK       I    between atoms: C1_2  and  N2_9 
REMARK    1  A    between atoms: N1_3  and  C2_4 
REMARK    2  A    between atoms: N2_9  and  C7_10 
REMARK    3  A    between atoms: N2_9  and  C14_18 
REMARK    4  A    between atoms: C7_10  and  C8_11 
REMARK    5  A    between atoms: C14_18  and  C15_19 
REMARK    6  A    between atoms: C20_25  and  O2_26 
ROOT
HETATM    1  O1  UNL     1      26.982   2.941  50.722  1.00  0.00    -0.247 OA
HETATM    2  C1  UNL     1      25.968   2.871  51.505  1.00  0.00     0.319 C 
HETATM    3  N1  UNL     1      26.426   1.908  52.437  1.00  0.00    -0.332 N 
HETATM    4  N2  UNL     1      24.682   3.546  51.507  1.00  0.00    -0.326 N 
HETATM    5  H1  UNL     1      25.856   1.569  53.228  1.00  0.00     0.165 HD
ENDROOT
BRANCH   4   6
HETATM    6  C7  UNL     1      24.672   4.405  50.347  1.00  0.00     0.166 C 
BRANCH   6   7
HETATM    7  C8  UNL     1      23.771   4.043  49.254  1.00  0.00    -0.040 A 
HETATM    8  C9  UNL     1      23.312   2.790  48.921  1.00  0.00     0.012 A 
HETATM    9  C10 UNL     1      22.436   2.499  47.901  1.00  0.00     0.043 A 
HETATM   10  C11 UNL     1      21.942   3.502  47.111  1.00  0.00     0.116 A 
HETATM   11  F1  UNL     1      21.085   3.224  46.108  1.00  0.00    -0.206 F 
HETATM   12  C12 UNL     1      22.346   4.793  47.372  1.00  0.00     0.043 A 
HETATM   13  C13 UNL     1      23.223   5.006  48.409  1.00  0.00     0.012 A 
ENDBRANCH   6   7
ENDBRANCH   4   6
BRANCH   4  14
HETATM   14  C14 UNL     1      23.856   3.139  52.629  1.00  0.00     0.169 C 
BRANCH  14  15
HETATM   15  C15 UNL     1      22.773   2.211  52.337  1.00  0.00    -0.005 A 
HETATM   16  C16 UNL     1      22.774   0.857  52.214  1.00  0.00     0.012 A 
HETATM   17  C17 UNL     1      21.704   0.027  51.964  1.00  0.00     0.002 A 
HETATM   18  C18 UNL     1      20.457   0.601  51.812  1.00  0.00     0.026 A 
HETATM   19  C19 UNL     1      20.355   1.975  51.919  1.00  0.00     0.067 A 
HETATM   20 CL1  UNL     1      18.745   2.612  51.712  1.00  0.00    -0.081 Cl
HETATM   21  C20 UNL     1      21.487   2.746  52.173  1.00  0.00     0.095 A 
BRANCH  21  22
HETATM   22  O2  UNL     1      21.165   4.089  52.234  1.00  0.00    -0.358 OA
HETATM   23  H18 UNL     1      21.552   4.776  52.841  1.00  0.00     0.217 HD
ENDBRANCH  21  22
ENDBRANCH  14  15
ENDBRANCH   4  14
BRANCH   3  24
HETATM   24  C2  UNL     1      27.663   1.205  52.512  1.00  0.00     0.132 A 
HETATM   25  C3  UNL     1      27.435  -0.204  52.918  1.00  0.00     0.002 A 
HETATM   26  C4  UNL     1      27.987  -0.473  54.076  1.00  0.00    -0.002 A 
HETATM   27  C5  UNL     1      28.651   0.741  54.576  1.00  0.00    -0.002 A 
HETATM   28  C6  UNL     1      28.462   1.699  53.676  1.00  0.00     0.002 A 
ENDBRANCH   3  24
TORSDOF 6
ENDMDL
