MODEL 1
REMARK VINA RESULT:      -8.1      0.000      0.000
REMARK  4 active torsions:
REMARK  status: ('A' for Active; 'I' for Inactive)
REMARK    1  A    between atoms: O1_1  and  C1_2 
REMARK    2  A    between atoms: C2_3  and  C3_4 
REMARK    3  A    between atoms: C4_5  and  N1_6 
REMARK    4  A    between atoms: N1_6  and  C5_7 
ROOT
HETATM    1  C5  UNL     1      26.294   2.498  51.760  1.00  0.00     0.159 A 
HETATM    2  N2  UNL     1      27.529   2.310  52.242  1.00  0.00    -0.222 NA
HETATM    3  C6  UNL     1      27.783   1.253  53.059  1.00  0.00     0.238 A 
HETATM    4  N3  UNL     1      26.774   0.430  53.353  1.00  0.00    -0.215 NA
HETATM    5  C7  UNL     1      25.513   0.575  52.893  1.00  0.00     0.202 A 
HETATM    6  C8  UNL     1      25.265   1.642  52.070  1.00  0.00     0.129 A 
HETATM    7  N4  UNL     1      24.060   2.049  51.441  1.00  0.00    -0.379 N 
HETATM    8  C9  UNL     1      22.692   1.716  51.698  1.00  0.00     0.161 C 
HETATM    9  C10 UNL     1      22.480   0.601  52.627  1.00  0.00    -0.004 A 
HETATM   10  C11 UNL     1      21.090   0.540  52.760  1.00  0.00     0.054 A 
HETATM   11  C12 UNL     1      20.465  -0.409  53.577  1.00  0.00     0.117 A 
HETATM   12  F1  UNL     1      19.128  -0.482  53.718  1.00  0.00    -0.206 F 
HETATM   13  C13 UNL     1      21.224  -1.304  54.266  1.00  0.00     0.045 A 
HETATM   14  C14 UNL     1      22.598  -1.273  54.157  1.00  0.00     0.041 A 
HETATM   15  C15 UNL     1      23.197  -0.331  53.348  1.00  0.00     0.086 A 
HETATM   16  O2  UNL     1      24.589  -0.367  53.293  1.00  0.00    -0.289 OA
HETATM   17  H8  UNL     1      24.202   2.706  50.652  1.00  0.00     0.160 HD
ENDROOT
BRANCH   1  18
HETATM   18  N1  UNL     1      26.162   3.627  50.925  1.00  0.00    -0.349 N 
HETATM   19  H6  UNL     1      25.730   4.561  50.792  1.00  0.00     0.167 HD
BRANCH  18  20
HETATM   20  C4  UNL     1      26.842   3.710  49.681  1.00  0.00     0.090 C 
HETATM   21  C3  UNL     1      26.630   4.817  48.965  1.00  0.00     0.019 C 
BRANCH  21  22
HETATM   22  C2  UNL     1      25.746   5.868  49.453  1.00  0.00     0.025 C 
HETATM   23  C1  UNL     1      26.206   7.111  49.672  1.00  0.00     0.131 C 
BRANCH  23  24
HETATM   24  O1  UNL     1      27.540   6.949  49.311  1.00  0.00    -0.373 OA
HETATM   25  H1  UNL     1      27.772   6.118  48.783  1.00  0.00     0.216 HD
ENDBRANCH  23  24
ENDBRANCH  21  22
ENDBRANCH  18  20
ENDBRANCH   1  18
TORSDOF 4
ENDMDL
MODEL 2
REMARK VINA RESULT:      -7.8      3.261      6.331
REMARK  4 active torsions:
REMARK  status: ('A' for Active; 'I' for Inactive)
REMARK    1  A    between atoms: O1_1  and  C1_2 
REMARK    2  A    between atoms: C2_3  and  C3_4 
REMARK    3  A    between atoms: C4_5  and  N1_6 
REMARK    4  A    between atoms: N1_6  and  C5_7 
ROOT
HETATM    1  C5  UNL     1      24.963  -0.118  53.443  1.00  0.00     0.159 A 
HETATM    2  N2  UNL     1      23.847  -0.595  54.008  1.00  0.00    -0.222 NA
HETATM    3  C6  UNL     1      22.632  -0.208  53.535  1.00  0.00     0.238 A 
HETATM    4  N3  UNL     1      22.598   0.645  52.510  1.00  0.00    -0.215 NA
HETATM    5  C7  UNL     1      23.694   1.154  51.906  1.00  0.00     0.202 A 
HETATM    6  C8  UNL     1      24.914   0.760  52.387  1.00  0.00     0.129 A 
HETATM    7  N4  UNL     1      26.221   1.118  51.965  1.00  0.00    -0.379 N 
HETATM    8  C9  UNL     1      26.699   2.208  51.170  1.00  0.00     0.161 C 
HETATM    9  C10 UNL     1      25.664   2.986  50.481  1.00  0.00    -0.004 A 
HETATM   10  C11 UNL     1      26.380   4.011  49.857  1.00  0.00     0.054 A 
HETATM   11  C12 UNL     1      25.748   4.990  49.082  1.00  0.00     0.117 A 
HETATM   12  F1  UNL     1      26.422   5.986  48.474  1.00  0.00    -0.206 F 
HETATM   13  C13 UNL     1      24.397   4.951  48.924  1.00  0.00     0.045 A 
HETATM   14  C14 UNL     1      23.660   3.953  49.524  1.00  0.00     0.041 A 
HETATM   15  C15 UNL     1      24.299   2.997  50.285  1.00  0.00     0.086 A 
HETATM   16  O2  UNL     1      23.482   2.024  50.857  1.00  0.00    -0.289 OA
HETATM   17  H8  UNL     1      26.959   0.469  52.294  1.00  0.00     0.160 HD
ENDROOT
BRANCH   1  18
HETATM   18  N1  UNL     1      26.157  -0.595  54.023  1.00  0.00    -0.349 N 
HETATM   19  H6  UNL     1      26.867  -1.351  54.049  1.00  0.00     0.167 HD
BRANCH  18  20
HETATM   20  C4  UNL     1      26.835   0.144  55.029  1.00  0.00     0.090 C 
HETATM   21  C3  UNL     1      28.169   0.123  54.979  1.00  0.00     0.019 C 
BRANCH  21  22
HETATM   22  C2  UNL     1      28.869  -0.623  53.941  1.00  0.00     0.025 C 
HETATM   23  C1  UNL     1      29.893  -0.075  53.267  1.00  0.00     0.131 C 
BRANCH  23  24
HETATM   24  O1  UNL     1      29.942   1.180  53.868  1.00  0.00    -0.373 OA
HETATM   25  H1  UNL     1      29.168   1.427  54.470  1.00  0.00     0.216 HD
ENDBRANCH  23  24
ENDBRANCH  21  22
ENDBRANCH  18  20
ENDBRANCH   1  18
TORSDOF 4
ENDMDL
MODEL 3
REMARK VINA RESULT:      -7.7      2.192      4.335
REMARK  4 active torsions:
REMARK  status: ('A' for Active; 'I' for Inactive)
REMARK    1  A    between atoms: O1_1  and  C1_2 
REMARK    2  A    between atoms: C2_3  and  C3_4 
REMARK    3  A    between atoms: C4_5  and  N1_6 
REMARK    4  A    between atoms: N1_6  and  C5_7 
ROOT
HETATM    1  C5  UNL     1      26.566   1.993  51.899  1.00  0.00     0.159 A 
HETATM    2  N2  UNL     1      26.802   2.877  50.921  1.00  0.00    -0.222 NA
HETATM    3  C6  UNL     1      25.759   3.481  50.290  1.00  0.00     0.238 A 
HETATM    4  N3  UNL     1      24.521   3.164  50.677  1.00  0.00    -0.215 NA
HETATM    5  C7  UNL     1      24.231   2.281  51.656  1.00  0.00     0.202 A 
HETATM    6  C8  UNL     1      25.286   1.677  52.287  1.00  0.00     0.129 A 
HETATM    7  N4  UNL     1      25.297   0.722  53.337  1.00  0.00    -0.379 N 
HETATM    8  C9  UNL     1      24.280  -0.150  53.840  1.00  0.00     0.161 C 
HETATM    9  C10 UNL     1      22.923   0.116  53.351  1.00  0.00    -0.004 A 
HETATM   10  C11 UNL     1      22.158  -0.904  53.922  1.00  0.00     0.054 A 
HETATM   11  C12 UNL     1      20.781  -1.011  53.698  1.00  0.00     0.117 A 
HETATM   12  F1  UNL     1      20.028  -1.987  54.240  1.00  0.00    -0.206 F 
HETATM   13  C13 UNL     1      20.159  -0.099  52.902  1.00  0.00     0.045 A 
HETATM   14  C14 UNL     1      20.883   0.921  52.323  1.00  0.00     0.041 A 
HETATM   15  C15 UNL     1      22.239   1.011  52.554  1.00  0.00     0.086 A 
HETATM   16  O2  UNL     1      22.897   2.070  51.932  1.00  0.00    -0.289 OA
HETATM   17  H8  UNL     1      26.209   0.646  53.824  1.00  0.00     0.160 HD
ENDROOT
BRANCH   1  18
HETATM   18  N1  UNL     1      27.729   1.438  52.472  1.00  0.00    -0.349 N 
HETATM   19  H6  UNL     1      28.380   0.631  52.504  1.00  0.00     0.167 HD
BRANCH  18  20
HETATM   20  C4  UNL     1      28.476   2.142  53.455  1.00  0.00     0.090 C 
HETATM   21  C3  UNL     1      29.036   1.400  54.413  1.00  0.00     0.019 C 
BRANCH  21  22
HETATM   22  C2  UNL     1      28.876  -0.049  54.431  1.00  0.00     0.025 C 
HETATM   23  C1  UNL     1      29.763  -0.849  53.819  1.00  0.00     0.131 C 
BRANCH  23  24
HETATM   24  O1  UNL     1      30.646   0.100  53.311  1.00  0.00    -0.373 OA
HETATM   25  H1  UNL     1      31.045   0.750  53.975  1.00  0.00     0.216 HD
ENDBRANCH  23  24
ENDBRANCH  21  22
ENDBRANCH  18  20
ENDBRANCH   1  18
TORSDOF 4
ENDMDL
MODEL 4
REMARK VINA RESULT:      -7.6      3.732      7.254
REMARK  4 active torsions:
REMARK  status: ('A' for Active; 'I' for Inactive)
REMARK    1  A    between atoms: O1_1  and  C1_2 
REMARK    2  A    between atoms: C2_3  and  C3_4 
REMARK    3  A    between atoms: C4_5  and  N1_6 
REMARK    4  A    between atoms: N1_6  and  C5_7 
ROOT
HETATM    1  C5  UNL     1      22.411   1.266  52.494  1.00  0.00     0.159 A 
HETATM    2  N2  UNL     1      21.759   2.430  52.390  1.00  0.00    -0.222 NA
HETATM    3  C6  UNL     1      22.459   3.595  52.331  1.00  0.00     0.238 A 
HETATM    4  N3  UNL     1      23.792   3.530  52.379  1.00  0.00    -0.215 NA
HETATM    5  C7  UNL     1      24.496   2.383  52.484  1.00  0.00     0.202 A 
HETATM    6  C8  UNL     1      23.783   1.214  52.543  1.00  0.00     0.129 A 
HETATM    7  N4  UNL     1      24.236  -0.126  52.652  1.00  0.00    -0.379 N 
HETATM    8  C9  UNL     1      25.493  -0.676  53.061  1.00  0.00     0.161 C 
HETATM    9  C10 UNL     1      26.590   0.289  53.190  1.00  0.00    -0.004 A 
HETATM   10  C11 UNL     1      27.655  -0.481  53.667  1.00  0.00     0.054 A 
HETATM   11  C12 UNL     1      28.911   0.076  53.929  1.00  0.00     0.117 A 
HETATM   12  F1  UNL     1      29.948  -0.651  54.389  1.00  0.00    -0.206 F 
HETATM   13  C13 UNL     1      29.114   1.404  53.716  1.00  0.00     0.045 A 
HETATM   14  C14 UNL     1      28.086   2.193  53.245  1.00  0.00     0.041 A 
HETATM   15  C15 UNL     1      26.854   1.628  52.993  1.00  0.00     0.086 A 
HETATM   16  O2  UNL     1      25.870   2.493  52.520  1.00  0.00    -0.289 OA
HETATM   17  H8  UNL     1      23.524  -0.831  52.387  1.00  0.00     0.160 HD
ENDROOT
BRANCH   1  18
HETATM   18  N1  UNL     1      21.572   0.133  52.547  1.00  0.00    -0.349 N 
HETATM   19  H6  UNL     1      21.100  -0.622  52.015  1.00  0.00     0.167 HD
BRANCH  18  20
HETATM   20  C4  UNL     1      21.044  -0.337  53.779  1.00  0.00     0.090 C 
HETATM   21  C3  UNL     1      19.738  -0.618  53.791  1.00  0.00     0.019 C 
BRANCH  21  22
HETATM   22  C2  UNL     1      18.921  -0.444  52.597  1.00  0.00     0.025 C 
HETATM   23  C1  UNL     1      17.617  -0.761  52.600  1.00  0.00     0.131 C 
BRANCH  23  24
HETATM   24  O1  UNL     1      17.472  -1.204  53.912  1.00  0.00    -0.373 OA
HETATM   25  H1  UNL     1      17.822  -2.129  54.121  1.00  0.00     0.216 HD
ENDBRANCH  23  24
ENDBRANCH  21  22
ENDBRANCH  18  20
ENDBRANCH   1  18
TORSDOF 4
ENDMDL
MODEL 5
REMARK VINA RESULT:      -7.6      2.879      4.246
REMARK  4 active torsions:
REMARK  status: ('A' for Active; 'I' for Inactive)
REMARK    1  A    between atoms: O1_1  and  C1_2 
REMARK    2  A    between atoms: C2_3  and  C3_4 
REMARK    3  A    between atoms: C4_5  and  N1_6 
REMARK    4  A    between atoms: N1_6  and  C5_7 
ROOT
HETATM    1  C5  UNL     1      24.474   5.201  50.633  1.00  0.00     0.159 A 
HETATM    2  N2  UNL     1      23.302   5.829  50.788  1.00  0.00    -0.222 NA
HETATM    3  C6  UNL     1      22.378   5.333  51.654  1.00  0.00     0.238 A 
HETATM    4  N3  UNL     1      22.681   4.221  52.328  1.00  0.00    -0.215 NA
HETATM    5  C7  UNL     1      23.848   3.551  52.207  1.00  0.00     0.202 A 
HETATM    6  C8  UNL     1      24.773   4.057  51.333  1.00  0.00     0.129 A 
HETATM    7  N4  UNL     1      26.068   3.582  50.999  1.00  0.00    -0.379 N 
HETATM    8  C9  UNL     1      26.690   2.306  51.180  1.00  0.00     0.161 C 
HETATM    9  C10 UNL     1      25.967   1.371  52.050  1.00  0.00    -0.004 A 
HETATM   10  C11 UNL     1      26.734   0.204  51.992  1.00  0.00     0.054 A 
HETATM   11  C12 UNL     1      26.378  -0.951  52.698  1.00  0.00     0.117 A 
HETATM   12  F1  UNL     1      27.105  -2.084  52.653  1.00  0.00    -0.206 F 
HETATM   13  C13 UNL     1      25.255  -0.948  53.466  1.00  0.00     0.045 A 
HETATM   14  C14 UNL     1      24.476   0.187  53.546  1.00  0.00     0.041 A 
HETATM   15  C15 UNL     1      24.841   1.316  52.844  1.00  0.00     0.086 A 
HETATM   16  O2  UNL     1      24.000   2.419  52.979  1.00  0.00    -0.289 OA
HETATM   17  H8  UNL     1      26.668   4.292  50.541  1.00  0.00     0.160 HD
ENDROOT
BRANCH   1  18
HETATM   18  N1  UNL     1      25.344   5.814  49.708  1.00  0.00    -0.349 N 
HETATM   19  H6  UNL     1      25.858   5.727  48.811  1.00  0.00     0.167 HD
BRANCH  18  20
HETATM   20  C4  UNL     1      25.841   7.128  49.920  1.00  0.00     0.090 C 
HETATM   21  C3  UNL     1      26.880   7.495  49.166  1.00  0.00     0.019 C 
BRANCH  21  22
HETATM   22  C2  UNL     1      27.455   6.583  48.186  1.00  0.00     0.025 C 
HETATM   23  C1  UNL     1      28.782   6.393  48.114  1.00  0.00     0.131 C 
BRANCH  23  24
HETATM   24  O1  UNL     1      29.210   7.241  49.132  1.00  0.00    -0.373 OA
HETATM   25  H1  UNL     1      29.942   7.899  48.900  1.00  0.00     0.216 HD
ENDBRANCH  23  24
ENDBRANCH  21  22
ENDBRANCH  18  20
ENDBRANCH   1  18
TORSDOF 4
ENDMDL
MODEL 6
REMARK VINA RESULT:      -7.5      2.909      4.638
REMARK  4 active torsions:
REMARK  status: ('A' for Active; 'I' for Inactive)
REMARK    1  A    between atoms: O1_1  and  C1_2 
REMARK    2  A    between atoms: C2_3  and  C3_4 
REMARK    3  A    between atoms: C4_5  and  N1_6 
REMARK    4  A    between atoms: N1_6  and  C5_7 
ROOT
HETATM    1  C5  UNL     1      24.647   0.754  52.731  1.00  0.00     0.159 A 
HETATM    2  N2  UNL     1      25.172   1.565  51.803  1.00  0.00    -0.222 NA
HETATM    3  C6  UNL     1      24.352   2.239  50.953  1.00  0.00     0.238 A 
HETATM    4  N3  UNL     1      23.035   2.064  51.079  1.00  0.00    -0.215 NA
HETATM    5  C7  UNL     1      22.457   1.260  51.996  1.00  0.00     0.202 A 
HETATM    6  C8  UNL     1      23.289   0.584  52.849  1.00  0.00     0.129 A 
HETATM    7  N4  UNL     1      22.982  -0.318  53.901  1.00  0.00    -0.379 N 
HETATM    8  C9  UNL     1      21.796  -1.062  54.201  1.00  0.00     0.161 C 
HETATM    9  C10 UNL     1      20.605  -0.686  53.431  1.00  0.00    -0.004 A 
HETATM   10  C11 UNL     1      19.635  -1.598  53.853  1.00  0.00     0.054 A 
HETATM   11  C12 UNL     1      18.330  -1.579  53.348  1.00  0.00     0.117 A 
HETATM   12  F1  UNL     1      17.383  -2.450  53.743  1.00  0.00    -0.206 F 
HETATM   13  C13 UNL     1      17.986  -0.648  52.417  1.00  0.00     0.045 A 
HETATM   14  C14 UNL     1      18.918   0.269  51.978  1.00  0.00     0.041 A 
HETATM   15  C15 UNL     1      20.199   0.235  52.487  1.00  0.00     0.086 A 
HETATM   16  O2  UNL     1      21.080   1.194  51.991  1.00  0.00    -0.289 OA
HETATM   17  H8  UNL     1      23.760  -0.461  54.570  1.00  0.00     0.160 HD
ENDROOT
BRANCH   1  18
HETATM   18  N1  UNL     1      25.601   0.114  53.549  1.00  0.00    -0.349 N 
HETATM   19  H6  UNL     1      25.944  -0.053  54.514  1.00  0.00     0.167 HD
BRANCH  18  20
HETATM   20  C4  UNL     1      26.619  -0.706  52.993  1.00  0.00     0.090 C 
HETATM   21  C3  UNL     1      27.856  -0.508  53.457  1.00  0.00     0.019 C 
BRANCH  21  22
HETATM   22  C2  UNL     1      28.123   0.499  54.476  1.00  0.00     0.025 C 
HETATM   23  C1  UNL     1      29.275   1.188  54.481  1.00  0.00     0.131 C 
BRANCH  23  24
HETATM   24  O1  UNL     1      29.900   0.634  53.367  1.00  0.00    -0.373 OA
HETATM   25  H1  UNL     1      29.691   1.055  52.471  1.00  0.00     0.216 HD
ENDBRANCH  23  24
ENDBRANCH  21  22
ENDBRANCH  18  20
ENDBRANCH   1  18
TORSDOF 4
ENDMDL
MODEL 7
REMARK VINA RESULT:      -7.4      2.115      3.344
REMARK  4 active torsions:
REMARK  status: ('A' for Active; 'I' for Inactive)
REMARK    1  A    between atoms: O1_1  and  C1_2 
REMARK    2  A    between atoms: C2_3  and  C3_4 
REMARK    3  A    between atoms: C4_5  and  N1_6 
REMARK    4  A    between atoms: N1_6  and  C5_7 
ROOT
HETATM    1  C5  UNL     1      24.204   4.289  50.772  1.00  0.00     0.159 A 
HETATM    2  N2  UNL     1      23.574   5.098  49.912  1.00  0.00    -0.222 NA
HETATM    3  C6  UNL     1      22.220   5.044  49.801  1.00  0.00     0.238 A 
HETATM    4  N3  UNL     1      21.560   4.172  50.568  1.00  0.00    -0.215 NA
HETATM    5  C7  UNL     1      22.149   3.336  51.450  1.00  0.00     0.202 A 
HETATM    6  C8  UNL     1      23.513   3.396  51.555  1.00  0.00     0.129 A 
HETATM    7  N4  UNL     1      24.398   2.655  52.381  1.00  0.00    -0.379 N 
HETATM    8  C9  UNL     1      24.230   1.426  53.095  1.00  0.00     0.161 C 
HETATM    9  C10 UNL     1      22.851   0.933  53.182  1.00  0.00    -0.004 A 
HETATM   10  C11 UNL     1      22.978  -0.291  53.845  1.00  0.00     0.054 A 
HETATM   11  C12 UNL     1      21.869  -1.096  54.131  1.00  0.00     0.117 A 
HETATM   12  F1  UNL     1      21.973  -2.278  54.768  1.00  0.00    -0.206 F 
HETATM   13  C13 UNL     1      20.627  -0.684  53.758  1.00  0.00     0.045 A 
HETATM   14  C14 UNL     1      20.465   0.518  53.103  1.00  0.00     0.041 A 
HETATM   15  C15 UNL     1      21.568   1.299  52.829  1.00  0.00     0.086 A 
HETATM   16  O2  UNL     1      21.320   2.498  52.165  1.00  0.00    -0.289 OA
HETATM   17  H8  UNL     1      25.335   3.086  52.482  1.00  0.00     0.160 HD
ENDROOT
BRANCH   1  18
HETATM   18  N1  UNL     1      25.607   4.441  50.792  1.00  0.00    -0.349 N 
HETATM   19  H6  UNL     1      26.415   4.977  51.158  1.00  0.00     0.167 HD
BRANCH  18  20
HETATM   20  C4  UNL     1      26.454   3.575  50.050  1.00  0.00     0.090 C 
HETATM   21  C3  UNL     1      27.106   4.126  49.023  1.00  0.00     0.019 C 
BRANCH  21  22
HETATM   22  C2  UNL     1      26.941   5.538  48.699  1.00  0.00     0.025 C 
HETATM   23  C1  UNL     1      28.005   6.349  48.587  1.00  0.00     0.131 C 
BRANCH  23  24
HETATM   24  O1  UNL     1      29.033   5.449  48.850  1.00  0.00    -0.373 OA
HETATM   25  H1  UNL     1      28.787   4.468  48.867  1.00  0.00     0.216 HD
ENDBRANCH  23  24
ENDBRANCH  21  22
ENDBRANCH  18  20
ENDBRANCH   1  18
TORSDOF 4
ENDMDL
MODEL 8
REMARK VINA RESULT:      -7.4      3.606      7.748
REMARK  4 active torsions:
REMARK  status: ('A' for Active; 'I' for Inactive)
REMARK    1  A    between atoms: O1_1  and  C1_2 
REMARK    2  A    between atoms: C2_3  and  C3_4 
REMARK    3  A    between atoms: C4_5  and  N1_6 
REMARK    4  A    between atoms: N1_6  and  C5_7 
ROOT
HETATM    1  C5  UNL     1      23.519   2.954  51.597  1.00  0.00     0.159 A 
HETATM    2  N2  UNL     1      22.537   3.471  52.345  1.00  0.00    -0.222 NA
HETATM    3  C6  UNL     1      22.280   4.806  52.296  1.00  0.00     0.238 A 
HETATM    4  N3  UNL     1      23.030   5.561  51.490  1.00  0.00    -0.215 NA
HETATM    5  C7  UNL     1      24.031   5.088  50.716  1.00  0.00     0.202 A 
HETATM    6  C8  UNL     1      24.283   3.743  50.771  1.00  0.00     0.129 A 
HETATM    7  N4  UNL     1      25.254   2.967  50.085  1.00  0.00    -0.379 N 
HETATM    8  C9  UNL     1      26.457   3.335  49.403  1.00  0.00     0.161 C 
HETATM    9  C10 UNL     1      26.635   4.773  49.170  1.00  0.00    -0.004 A 
HETATM   10  C11 UNL     1      27.896   4.859  48.574  1.00  0.00     0.054 A 
HETATM   11  C12 UNL     1      28.450   6.084  48.189  1.00  0.00     0.117 A 
HETATM   12  F1  UNL     1      29.664   6.186  47.614  1.00  0.00    -0.206 F 
HETATM   13  C13 UNL     1      27.749   7.232  48.396  1.00  0.00     0.045 A 
HETATM   14  C14 UNL     1      26.502   7.184  48.981  1.00  0.00     0.041 A 
HETATM   15  C15 UNL     1      25.971   5.968  49.355  1.00  0.00     0.086 A 
HETATM   16  O2  UNL     1      24.707   6.005  49.939  1.00  0.00    -0.289 OA
HETATM   17  H8  UNL     1      25.050   1.951  50.080  1.00  0.00     0.160 HD
ENDROOT
BRANCH   1  18
HETATM   18  N1  UNL     1      23.685   1.560  51.738  1.00  0.00    -0.349 N 
HETATM   19  H6  UNL     1      23.974   0.672  51.288  1.00  0.00     0.167 HD
BRANCH  18  20
HETATM   20  C4  UNL     1      23.374   0.899  52.956  1.00  0.00     0.090 C 
HETATM   21  C3  UNL     1      24.322   0.102  53.454  1.00  0.00     0.019 C 
BRANCH  21  22
HETATM   22  C2  UNL     1      25.598  -0.065  52.769  1.00  0.00     0.025 C 
HETATM   23  C1  UNL     1      26.631  -0.673  53.372  1.00  0.00     0.131 C 
BRANCH  23  24
HETATM   24  O1  UNL     1      26.058  -0.976  54.603  1.00  0.00    -0.373 OA
HETATM   25  H1  UNL     1      25.593  -1.871  54.682  1.00  0.00     0.216 HD
ENDBRANCH  23  24
ENDBRANCH  21  22
ENDBRANCH  18  20
ENDBRANCH   1  18
TORSDOF 4
ENDMDL
MODEL 9
REMARK VINA RESULT:      -7.1      2.873      4.580
REMARK  4 active torsions:
REMARK  status: ('A' for Active; 'I' for Inactive)
REMARK    1  A    between atoms: O1_1  and  C1_2 
REMARK    2  A    between atoms: C2_3  and  C3_4 
REMARK    3  A    between atoms: C4_5  and  N1_6 
REMARK    4  A    between atoms: N1_6  and  C5_7 
ROOT
HETATM    1  C5  UNL     1      26.106   5.351  49.159  1.00  0.00     0.159 A 
HETATM    2  N2  UNL     1      25.278   6.197  48.534  1.00  0.00    -0.222 NA
HETATM    3  C6  UNL     1      23.956   6.207  48.853  1.00  0.00     0.238 A 
HETATM    4  N3  UNL     1      23.529   5.360  49.792  1.00  0.00    -0.215 NA
HETATM    5  C7  UNL     1      24.323   4.488  50.451  1.00  0.00     0.202 A 
HETATM    6  C8  UNL     1      25.653   4.484  50.124  1.00  0.00     0.129 A 
HETATM    7  N4  UNL     1      26.716   3.695  50.636  1.00  0.00    -0.379 N 
HETATM    8  C9  UNL     1      26.721   2.468  51.374  1.00  0.00     0.161 C 
HETATM    9  C10 UNL     1      25.417   2.039  51.891  1.00  0.00    -0.004 A 
HETATM   10  C11 UNL     1      25.686   0.804  52.487  1.00  0.00     0.054 A 
HETATM   11  C12 UNL     1      24.686   0.049  53.110  1.00  0.00     0.117 A 
HETATM   12  F1  UNL     1      24.928  -1.143  53.689  1.00  0.00    -0.206 F 
HETATM   13  C13 UNL     1      23.411   0.522  53.141  1.00  0.00     0.045 A 
HETATM   14  C14 UNL     1      23.109   1.737  52.563  1.00  0.00     0.041 A 
HETATM   15  C15 UNL     1      24.107   2.468  51.953  1.00  0.00     0.086 A 
HETATM   16  O2  UNL     1      23.720   3.683  51.394  1.00  0.00    -0.289 OA
HETATM   17  H8  UNL     1      27.657   4.080  50.437  1.00  0.00     0.160 HD
ENDROOT
BRANCH   1  18
HETATM   18  N1  UNL     1      27.450   5.437  48.739  1.00  0.00    -0.349 N 
HETATM   19  H6  UNL     1      28.374   4.970  48.688  1.00  0.00     0.167 HD
BRANCH  18  20
HETATM   20  C4  UNL     1      27.944   6.594  48.077  1.00  0.00     0.090 C 
HETATM   21  C3  UNL     1      29.249   6.600  47.795  1.00  0.00     0.019 C 
BRANCH  21  22
HETATM   22  C2  UNL     1      30.101   5.474  48.157  1.00  0.00     0.025 C 
HETATM   23  C1  UNL     1      31.317   5.325  47.610  1.00  0.00     0.131 C 
BRANCH  23  24
HETATM   24  O1  UNL     1      31.355   6.441  46.779  1.00  0.00    -0.373 OA
HETATM   25  H1  UNL     1      30.471   6.759  46.404  1.00  0.00     0.216 HD
ENDBRANCH  23  24
ENDBRANCH  21  22
ENDBRANCH  18  20
ENDBRANCH   1  18
TORSDOF 4
ENDMDL
