MODEL 1
REMARK VINA RESULT:      -9.0      0.000      0.000
REMARK  1 active torsions:
REMARK  status: ('A' for Active; 'I' for Inactive)
REMARK    1  A    between atoms: C11_16  and  C12_17 
ROOT
HETATM    1  F1  UNL     1      28.926   2.660  53.786  1.00  0.00    -0.205 F 
HETATM    2  C1  UNL     1      27.917   1.963  53.318  1.00  0.00     0.129 C 
HETATM    3  C2  UNL     1      27.164   2.120  52.213  1.00  0.00     0.021 C 
HETATM    4  C3  UNL     1      26.204   1.307  51.958  1.00  0.00    -0.033 C 
HETATM    5  C4  UNL     1      26.830  -0.079  52.152  1.00  0.00     0.094 C 
HETATM    6  C5  UNL     1      26.761   0.030  53.693  1.00  0.00     0.016 C 
HETATM    7  C6  UNL     1      27.663   0.833  54.295  1.00  0.00     0.068 C 
HETATM    8  N1  UNL     1      25.824  -0.500  54.631  1.00  0.00    -0.355 N 
HETATM    9  C7  UNL     1      24.370  -0.641  54.436  1.00  0.00     0.096 A 
HETATM   10  C8  UNL     1      24.087  -1.406  55.526  1.00  0.00     0.151 A 
HETATM   11  N2  UNL     1      22.779  -1.690  55.608  1.00  0.00    -0.252 NA
HETATM   12  C9  UNL     1      21.917  -1.216  54.656  1.00  0.00     0.235 A 
HETATM   13  N3  UNL     1      22.258  -0.445  53.572  1.00  0.00    -0.222 NA
HETATM   14  C10 UNL     1      23.531  -0.123  53.422  1.00  0.00     0.154 A 
HETATM   15  N4  UNL     1      23.857   0.695  52.304  1.00  0.00    -0.361 N 
HETATM   16  C11 UNL     1      24.832   1.523  51.637  1.00  0.00     0.143 C 
HETATM   17  H4  UNL     1      26.346  -0.743  55.482  1.00  0.00     0.166 HD
HETATM   18  H7  UNL     1      22.973   0.671  51.722  1.00  0.00     0.162 HD
ENDROOT
BRANCH  16  19
HETATM   19  C12 UNL     1      24.321   2.905  51.659  1.00  0.00    -0.050 A 
HETATM   20  C13 UNL     1      24.161   3.847  50.756  1.00  0.00     0.005 A 
HETATM   21  C14 UNL     1      23.599   5.087  51.275  1.00  0.00    -0.003 A 
HETATM   22  C15 UNL     1      23.428   4.831  52.556  1.00  0.00    -0.022 A 
HETATM   23  C16 UNL     1      23.838   3.480  52.972  1.00  0.00     0.063 A 
ENDBRANCH  16  19
TORSDOF 1
ENDMDL
MODEL 2
REMARK VINA RESULT:      -8.5      1.709      4.400
REMARK  1 active torsions:
REMARK  status: ('A' for Active; 'I' for Inactive)
REMARK    1  A    between atoms: C11_16  and  C12_17 
ROOT
HETATM    1  F1  UNL     1      26.763   2.822  49.749  1.00  0.00    -0.205 F 
HETATM    2  C1  UNL     1      26.346   2.465  50.941  1.00  0.00     0.129 C 
HETATM    3  C2  UNL     1      27.019   2.210  52.080  1.00  0.00     0.021 C 
HETATM    4  C3  UNL     1      26.390   1.858  53.142  1.00  0.00    -0.033 C 
HETATM    5  C4  UNL     1      25.248   2.874  53.251  1.00  0.00     0.094 C 
HETATM    6  C5  UNL     1      24.427   2.172  52.143  1.00  0.00     0.016 C 
HETATM    7  C6  UNL     1      24.837   2.346  50.870  1.00  0.00     0.068 C 
HETATM    8  N1  UNL     1      23.334   1.257  52.221  1.00  0.00    -0.355 N 
HETATM    9  C7  UNL     1      23.145   0.197  53.227  1.00  0.00     0.096 A 
HETATM   10  C8  UNL     1      21.861  -0.142  52.934  1.00  0.00     0.151 A 
HETATM   11  N2  UNL     1      21.415  -1.132  53.722  1.00  0.00    -0.252 NA
HETATM   12  C9  UNL     1      22.238  -1.667  54.676  1.00  0.00     0.235 A 
HETATM   13  N3  UNL     1      23.533  -1.285  54.929  1.00  0.00    -0.222 NA
HETATM   14  C10 UNL     1      24.044  -0.315  54.193  1.00  0.00     0.154 A 
HETATM   15  N4  UNL     1      25.394   0.048  54.459  1.00  0.00    -0.361 N 
HETATM   16  C11 UNL     1      26.574   0.765  54.039  1.00  0.00     0.143 C 
HETATM   17  H4  UNL     1      22.710   1.457  51.429  1.00  0.00     0.166 HD
HETATM   18  H7  UNL     1      25.599  -0.442  55.374  1.00  0.00     0.162 HD
ENDROOT
BRANCH  16  19
HETATM   19  C12 UNL     1      27.602  -0.238  53.714  1.00  0.00    -0.050 A 
HETATM   20  C13 UNL     1      27.620  -1.353  53.016  1.00  0.00     0.005 A 
HETATM   21  C14 UNL     1      28.914  -2.020  52.983  1.00  0.00    -0.003 A 
HETATM   22  C15 UNL     1      29.681  -1.233  53.709  1.00  0.00    -0.022 A 
HETATM   23  C16 UNL     1      29.002  -0.047  54.255  1.00  0.00     0.063 A 
ENDBRANCH  16  19
TORSDOF 1
ENDMDL
MODEL 3
REMARK VINA RESULT:      -8.3      2.820      4.463
REMARK  1 active torsions:
REMARK  status: ('A' for Active; 'I' for Inactive)
REMARK    1  A    between atoms: C11_16  and  C12_17 
ROOT
HETATM    1  F1  UNL     1      21.519   1.299  48.798  1.00  0.00    -0.205 F 
HETATM    2  C1  UNL     1      22.108   1.736  49.886  1.00  0.00     0.129 C 
HETATM    3  C2  UNL     1      22.639   2.937  50.188  1.00  0.00     0.021 C 
HETATM    4  C3  UNL     1      23.184   3.138  51.332  1.00  0.00    -0.033 C 
HETATM    5  C4  UNL     1      22.162   2.585  52.332  1.00  0.00     0.094 C 
HETATM    6  C5  UNL     1      22.563   1.121  52.037  1.00  0.00     0.016 C 
HETATM    7  C6  UNL     1      22.134   0.588  50.873  1.00  0.00     0.068 C 
HETATM    8  N1  UNL     1      23.418   0.221  52.741  1.00  0.00    -0.355 N 
HETATM    9  C7  UNL     1      24.662   0.564  53.451  1.00  0.00     0.096 A 
HETATM   10  C8  UNL     1      24.865  -0.614  54.099  1.00  0.00     0.151 A 
HETATM   11  N2  UNL     1      25.980  -0.587  54.844  1.00  0.00    -0.252 NA
HETATM   12  C9  UNL     1      26.751   0.543  54.876  1.00  0.00     0.235 A 
HETATM   13  N3  UNL     1      26.499   1.711  54.199  1.00  0.00    -0.222 NA
HETATM   14  C10 UNL     1      25.417   1.762  53.442  1.00  0.00     0.154 A 
HETATM   15  N4  UNL     1      25.187   2.974  52.733  1.00  0.00    -0.361 N 
HETATM   16  C11 UNL     1      24.454   3.668  51.702  1.00  0.00     0.143 C 
HETATM   17  H4  UNL     1      23.019  -0.721  52.642  1.00  0.00     0.166 HD
HETATM   18  H7  UNL     1      25.876   3.645  53.175  1.00  0.00     0.162 HD
ENDROOT
BRANCH  16  19
HETATM   19  C12 UNL     1      25.411   3.996  50.631  1.00  0.00    -0.050 A 
HETATM   20  C13 UNL     1      26.391   3.351  50.036  1.00  0.00     0.005 A 
HETATM   21  C14 UNL     1      27.073   4.117  49.001  1.00  0.00    -0.003 A 
HETATM   22  C15 UNL     1      26.439   5.271  49.010  1.00  0.00    -0.022 A 
HETATM   23  C16 UNL     1      25.347   5.366  49.993  1.00  0.00     0.063 A 
ENDBRANCH  16  19
TORSDOF 1
ENDMDL
MODEL 4
REMARK VINA RESULT:      -8.0      2.984      5.212
REMARK  1 active torsions:
REMARK  status: ('A' for Active; 'I' for Inactive)
REMARK    1  A    between atoms: C11_16  and  C12_17 
ROOT
HETATM    1  F1  UNL     1      26.105  -1.641  52.727  1.00  0.00    -0.205 F 
HETATM    2  C1  UNL     1      25.740  -0.380  52.748  1.00  0.00     0.129 C 
HETATM    3  C2  UNL     1      24.663   0.224  53.287  1.00  0.00     0.021 C 
HETATM    4  C3  UNL     1      24.504   1.492  53.172  1.00  0.00    -0.033 C 
HETATM    5  C4  UNL     1      25.866   2.075  53.565  1.00  0.00     0.094 C 
HETATM    6  C5  UNL     1      26.495   1.703  52.201  1.00  0.00     0.016 C 
HETATM    7  C6  UNL     1      26.793   0.404  51.993  1.00  0.00     0.068 C 
HETATM    8  N1  UNL     1      26.737   2.489  51.034  1.00  0.00    -0.355 N 
HETATM    9  C7  UNL     1      25.878   3.563  50.504  1.00  0.00     0.096 A 
HETATM   10  C8  UNL     1      26.731   4.072  49.573  1.00  0.00     0.151 A 
HETATM   11  N2  UNL     1      26.185   5.098  48.905  1.00  0.00    -0.252 NA
HETATM   12  C9  UNL     1      24.912   5.505  49.203  1.00  0.00     0.235 A 
HETATM   13  N3  UNL     1      24.092   4.953  50.156  1.00  0.00    -0.222 NA
HETATM   14  C10 UNL     1      24.560   3.936  50.857  1.00  0.00     0.154 A 
HETATM   15  N4  UNL     1      23.684   3.366  51.824  1.00  0.00    -0.361 N 
HETATM   16  C11 UNL     1      23.400   2.277  52.727  1.00  0.00     0.143 C 
HETATM   17  H4  UNL     1      27.611   2.151  50.613  1.00  0.00     0.166 HD
HETATM   18  H7  UNL     1      22.900   4.075  51.885  1.00  0.00     0.162 HD
ENDROOT
BRANCH  16  19
HETATM   19  C12 UNL     1      22.212   1.578  52.208  1.00  0.00    -0.050 A 
HETATM   20  C13 UNL     1      21.090   1.143  52.738  1.00  0.00     0.005 A 
HETATM   21  C14 UNL     1      20.192   0.493  51.792  1.00  0.00    -0.003 A 
HETATM   22  C15 UNL     1      20.848   0.564  50.653  1.00  0.00    -0.022 A 
HETATM   23  C16 UNL     1      22.159   1.227  50.738  1.00  0.00     0.063 A 
ENDBRANCH  16  19
TORSDOF 1
ENDMDL
MODEL 5
REMARK VINA RESULT:      -7.7      2.877      5.831
REMARK  1 active torsions:
REMARK  status: ('A' for Active; 'I' for Inactive)
REMARK    1  A    between atoms: C11_16  and  C12_17 
ROOT
HETATM    1  F1  UNL     1      21.170  -0.822  55.256  1.00  0.00    -0.205 F 
HETATM    2  C1  UNL     1      21.673  -0.276  54.173  1.00  0.00     0.129 C 
HETATM    3  C2  UNL     1      22.727  -0.624  53.410  1.00  0.00     0.021 C 
HETATM    4  C3  UNL     1      23.047   0.078  52.385  1.00  0.00    -0.033 C 
HETATM    5  C4  UNL     1      21.720   0.281  51.644  1.00  0.00     0.094 C 
HETATM    6  C5  UNL     1      21.250   1.364  52.643  1.00  0.00     0.016 C 
HETATM    7  C6  UNL     1      20.834   0.945  53.856  1.00  0.00     0.068 C 
HETATM    8  N1  UNL     1      21.266   2.789  52.560  1.00  0.00    -0.355 N 
HETATM    9  C7  UNL     1      22.309   3.621  51.934  1.00  0.00     0.096 A 
HETATM   10  C8  UNL     1      21.660   4.817  51.950  1.00  0.00     0.151 A 
HETATM   11  N2  UNL     1      22.410   5.798  51.427  1.00  0.00    -0.252 NA
HETATM   12  C9  UNL     1      23.668   5.520  50.962  1.00  0.00     0.235 A 
HETATM   13  N3  UNL     1      24.277   4.289  50.971  1.00  0.00    -0.222 NA
HETATM   14  C10 UNL     1      23.600   3.271  51.471  1.00  0.00     0.154 A 
HETATM   15  N4  UNL     1      24.260   2.010  51.490  1.00  0.00    -0.361 N 
HETATM   16  C11 UNL     1      24.286   0.650  51.971  1.00  0.00     0.143 C 
HETATM   17  H4  UNL     1      20.426   3.134  53.041  1.00  0.00     0.166 HD
HETATM   18  H7  UNL     1      25.105   2.172  50.874  1.00  0.00     0.162 HD
ENDROOT
BRANCH  16  19
HETATM   19  C12 UNL     1      25.445   0.527  52.870  1.00  0.00    -0.050 A 
HETATM   20  C13 UNL     1      25.882   1.197  53.914  1.00  0.00     0.005 A 
HETATM   21  C14 UNL     1      27.116   0.677  54.488  1.00  0.00    -0.003 A 
HETATM   22  C15 UNL     1      27.397  -0.356  53.721  1.00  0.00    -0.022 A 
HETATM   23  C16 UNL     1      26.432  -0.596  52.636  1.00  0.00     0.063 A 
ENDBRANCH  16  19
TORSDOF 1
ENDMDL
MODEL 6
REMARK VINA RESULT:      -7.6      2.292      5.033
REMARK  1 active torsions:
REMARK  status: ('A' for Active; 'I' for Inactive)
REMARK    1  A    between atoms: C11_16  and  C12_17 
ROOT
HETATM    1  F1  UNL     1      21.477   4.500  52.367  1.00  0.00    -0.205 F 
HETATM    2  C1  UNL     1      22.327   3.520  52.166  1.00  0.00     0.129 C 
HETATM    3  C2  UNL     1      22.138   2.247  51.771  1.00  0.00     0.021 C 
HETATM    4  C3  UNL     1      23.136   1.449  51.652  1.00  0.00    -0.033 C 
HETATM    5  C4  UNL     1      24.163   2.255  50.849  1.00  0.00     0.094 C 
HETATM    6  C5  UNL     1      24.568   3.096  52.082  1.00  0.00     0.016 C 
HETATM    7  C6  UNL     1      23.708   4.055  52.483  1.00  0.00     0.068 C 
HETATM    8  N1  UNL     1      25.677   2.980  52.974  1.00  0.00    -0.355 N 
HETATM    9  C7  UNL     1      26.296   1.730  53.449  1.00  0.00     0.096 A 
HETATM   10  C8  UNL     1      27.405   2.257  54.035  1.00  0.00     0.151 A 
HETATM   11  N2  UNL     1      28.179   1.306  54.580  1.00  0.00    -0.252 NA
HETATM   12  C9  UNL     1      27.804  -0.008  54.499  1.00  0.00     0.235 A 
HETATM   13  N3  UNL     1      26.668  -0.486  53.893  1.00  0.00    -0.222 NA
HETATM   14  C10 UNL     1      25.854   0.391  53.332  1.00  0.00     0.154 A 
HETATM   15  N4  UNL     1      24.673  -0.126  52.729  1.00  0.00    -0.361 N 
HETATM   16  C11 UNL     1      23.373   0.138  52.161  1.00  0.00     0.143 C 
HETATM   17  H4  UNL     1      25.950   3.932  53.248  1.00  0.00     0.166 HD
HETATM   18  H7  UNL     1      24.854  -1.168  52.701  1.00  0.00     0.162 HD
ENDROOT
BRANCH  16  19
HETATM   19  C12 UNL     1      22.373  -0.449  53.069  1.00  0.00    -0.050 A 
HETATM   20  C13 UNL     1      21.071  -0.630  53.018  1.00  0.00     0.005 A 
HETATM   21  C14 UNL     1      20.509  -1.276  54.197  1.00  0.00    -0.003 A 
HETATM   22  C15 UNL     1      21.560  -1.474  54.966  1.00  0.00    -0.022 A 
HETATM   23  C16 UNL     1      22.834  -1.005  54.398  1.00  0.00     0.063 A 
ENDBRANCH  16  19
TORSDOF 1
ENDMDL
MODEL 7
REMARK VINA RESULT:      -7.5      3.404      5.467
REMARK  1 active torsions:
REMARK  status: ('A' for Active; 'I' for Inactive)
REMARK    1  A    between atoms: C11_16  and  C12_17 
ROOT
HETATM    1  F1  UNL     1      22.208   3.256  46.573  1.00  0.00    -0.205 F 
HETATM    2  C1  UNL     1      22.546   3.521  47.813  1.00  0.00     0.129 C 
HETATM    3  C2  UNL     1      23.113   4.611  48.366  1.00  0.00     0.021 C 
HETATM    4  C3  UNL     1      23.368   4.643  49.624  1.00  0.00    -0.033 C 
HETATM    5  C4  UNL     1      22.070   4.157  50.278  1.00  0.00     0.094 C 
HETATM    6  C5  UNL     1      22.367   2.680  49.927  1.00  0.00     0.016 C 
HETATM    7  C6  UNL     1      22.192   2.305  48.643  1.00  0.00     0.068 C 
HETATM    8  N1  UNL     1      22.908   1.619  50.714  1.00  0.00    -0.355 N 
HETATM    9  C7  UNL     1      23.961   1.732  51.738  1.00  0.00     0.096 A 
HETATM   10  C8  UNL     1      23.860   0.489  52.281  1.00  0.00     0.151 A 
HETATM   11  N2  UNL     1      24.744   0.305  53.272  1.00  0.00    -0.252 NA
HETATM   12  C9  UNL     1      25.603   1.314  53.616  1.00  0.00     0.235 A 
HETATM   13  N3  UNL     1      25.663   2.555  53.031  1.00  0.00    -0.222 NA
HETATM   14  C10 UNL     1      24.822   2.813  52.046  1.00  0.00     0.154 A 
HETATM   15  N4  UNL     1      24.917   4.098  51.441  1.00  0.00    -0.361 N 
HETATM   16  C11 UNL     1      24.553   4.965  50.347  1.00  0.00     0.143 C 
HETATM   17  H4  UNL     1      22.445   0.750  50.417  1.00  0.00     0.166 HD
HETATM   18  H7  UNL     1      25.541   4.632  52.109  1.00  0.00     0.162 HD
ENDROOT
BRANCH  16  19
HETATM   19  C12 UNL     1      25.782   5.244  49.584  1.00  0.00    -0.050 A 
HETATM   20  C13 UNL     1      26.282   6.307  48.992  1.00  0.00     0.005 A 
HETATM   21  C14 UNL     1      27.568   6.083  48.345  1.00  0.00    -0.003 A 
HETATM   22  C15 UNL     1      27.813   4.812  48.586  1.00  0.00    -0.022 A 
HETATM   23  C16 UNL     1      26.773   4.123  49.366  1.00  0.00     0.063 A 
ENDBRANCH  16  19
TORSDOF 1
ENDMDL
MODEL 8
REMARK VINA RESULT:      -7.3      3.992      7.207
REMARK  1 active torsions:
REMARK  status: ('A' for Active; 'I' for Inactive)
REMARK    1  A    between atoms: C11_16  and  C12_17 
ROOT
HETATM    1  F1  UNL     1      22.578   4.651  52.958  1.00  0.00    -0.205 F 
HETATM    2  C1  UNL     1      23.336   4.357  51.928  1.00  0.00     0.129 C 
HETATM    3  C2  UNL     1      23.878   3.192  51.527  1.00  0.00     0.021 C 
HETATM    4  C3  UNL     1      24.609   3.143  50.473  1.00  0.00    -0.033 C 
HETATM    5  C4  UNL     1      23.793   3.901  49.419  1.00  0.00     0.094 C 
HETATM    6  C5  UNL     1      24.175   5.277  50.014  1.00  0.00     0.016 C 
HETATM    7  C6  UNL     1      23.565   5.644  51.160  1.00  0.00     0.068 C 
HETATM    8  N1  UNL     1      25.164   6.228  49.620  1.00  0.00    -0.355 N 
HETATM    9  C7  UNL     1      26.504   5.932  49.083  1.00  0.00     0.096 A 
HETATM   10  C8  UNL     1      26.849   7.184  48.680  1.00  0.00     0.151 A 
HETATM   11  N2  UNL     1      28.076   7.213  48.139  1.00  0.00    -0.252 NA
HETATM   12  C9  UNL     1      28.809   6.061  48.051  1.00  0.00     0.235 A 
HETATM   13  N3  UNL     1      28.411   4.818  48.476  1.00  0.00    -0.222 NA
HETATM   14  C10 UNL     1      27.212   4.708  49.021  1.00  0.00     0.154 A 
HETATM   15  N4  UNL     1      26.830   3.414  49.474  1.00  0.00    -0.361 N 
HETATM   16  C11 UNL     1      25.910   2.608  50.240  1.00  0.00     0.143 C 
HETATM   17  H4  UNL     1      24.780   7.163  49.804  1.00  0.00     0.166 HD
HETATM   18  H7  UNL     1      27.567   2.784  49.050  1.00  0.00     0.162 HD
ENDROOT
BRANCH  16  19
HETATM   19  C12 UNL     1      26.656   2.065  51.387  1.00  0.00    -0.050 A 
HETATM   20  C13 UNL     1      27.531   2.554  52.238  1.00  0.00     0.005 A 
HETATM   21  C14 UNL     1      28.002   1.599  53.231  1.00  0.00    -0.003 A 
HETATM   22  C15 UNL     1      27.352   0.495  52.925  1.00  0.00    -0.022 A 
HETATM   23  C16 UNL     1      26.447   0.616  51.770  1.00  0.00     0.063 A 
ENDBRANCH  16  19
TORSDOF 1
ENDMDL
MODEL 9
REMARK VINA RESULT:      -7.0      8.989     11.315
REMARK  1 active torsions:
REMARK  status: ('A' for Active; 'I' for Inactive)
REMARK    1  A    between atoms: C11_16  and  C12_17 
ROOT
HETATM    1  F1  UNL     1      35.153   4.589  43.591  1.00  0.00    -0.205 F 
HETATM    2  C1  UNL     1      34.590   4.786  44.760  1.00  0.00     0.129 C 
HETATM    3  C2  UNL     1      34.623   4.063  45.895  1.00  0.00     0.021 C 
HETATM    4  C3  UNL     1      33.974   4.450  46.932  1.00  0.00    -0.033 C 
HETATM    5  C4  UNL     1      34.343   5.931  47.070  1.00  0.00     0.094 C 
HETATM    6  C5  UNL     1      33.393   6.345  45.921  1.00  0.00     0.016 C 
HETATM    7  C6  UNL     1      33.793   6.071  44.662  1.00  0.00     0.068 C 
HETATM    8  N1  UNL     1      32.075   6.893  45.945  1.00  0.00    -0.355 N 
HETATM    9  C7  UNL     1      31.003   6.564  46.900  1.00  0.00     0.096 A 
HETATM   10  C8  UNL     1      30.124   7.550  46.575  1.00  0.00     0.151 A 
HETATM   11  N2  UNL     1      29.006   7.484  47.313  1.00  0.00    -0.252 NA
HETATM   12  C9  UNL     1      28.868   6.499  48.254  1.00  0.00     0.235 A 
HETATM   13  N3  UNL     1      29.791   5.524  48.542  1.00  0.00    -0.222 NA
HETATM   14  C10 UNL     1      30.920   5.523  47.856  1.00  0.00     0.154 A 
HETATM   15  N4  UNL     1      31.852   4.490  48.156  1.00  0.00    -0.361 N 
HETATM   16  C11 UNL     1      33.050   3.777  47.784  1.00  0.00     0.143 C 
HETATM   17  H4  UNL     1      32.000   7.544  45.153  1.00  0.00     0.166 HD
HETATM   18  H7  UNL     1      31.470   4.075  49.052  1.00  0.00     0.162 HD
ENDROOT
BRANCH  16  19
HETATM   19  C12 UNL     1      32.648   2.404  47.430  1.00  0.00    -0.050 A 
HETATM   20  C13 UNL     1      31.918   1.871  46.475  1.00  0.00     0.005 A 
HETATM   21  C14 UNL     1      31.805   0.420  46.545  1.00  0.00    -0.003 A 
HETATM   22  C15 UNL     1      32.518   0.111  47.608  1.00  0.00    -0.022 A 
HETATM   23  C16 UNL     1      33.129   1.260  48.295  1.00  0.00     0.063 A 
ENDBRANCH  16  19
TORSDOF 1
ENDMDL
