MODEL 1
REMARK VINA RESULT:      -7.3      0.000      0.000
REMARK  5 active torsions:
REMARK  status: ('A' for Active; 'I' for Inactive)
REMARK    1  A    between atoms: C3_4  and  N2_5 
REMARK    2  A    between atoms: N2_5  and  C4_6 
REMARK    3  A    between atoms: C4_6  and  C5_7 
REMARK    4  A    between atoms: C6_10  and  C7_11 
REMARK       I    between atoms: C7_11  and  N4_13 
REMARK    5  A    between atoms: N4_13  and  C8_14 
ROOT
HETATM    1  C1  UNL     1      26.849  -1.414  52.521  1.00  0.00     0.066 C 
HETATM    2  C2  UNL     1      26.202  -0.077  52.516  1.00  0.00     0.030 A 
HETATM    3  N1  UNL     1      26.807   0.839  51.793  1.00  0.00    -0.073 NA
HETATM    4  C3  UNL     1      26.185   2.143  51.785  1.00  0.00     0.718 A 
HETATM    5  N3  UNL     1      25.131   2.345  52.445  1.00  0.00    -0.090 NA
HETATM    6  C6  UNL     1      24.374   1.469  53.261  1.00  0.00     0.225 A 
HETATM    7  C15 UNL     1      24.966   0.097  53.303  1.00  0.00     0.092 A 
ENDROOT
BRANCH   6   8
HETATM    8  C7  UNL     1      22.926   1.428  52.853  1.00  0.00     0.248 C 
HETATM    9  O1  UNL     1      22.400   2.477  52.481  1.00  0.00    -0.271 OA
HETATM   10  N4  UNL     1      22.180   0.226  52.893  1.00  0.00    -0.325 N 
HETATM   11  H10 UNL     1      22.746  -0.584  53.222  1.00  0.00     0.169 HD
BRANCH  10  12
HETATM   12  C8  UNL     1      20.842   0.018  52.557  1.00  0.00     0.034 A 
HETATM   13  C9  UNL     1      20.011  -0.642  53.436  1.00  0.00     0.030 A 
HETATM   14  C10 UNL     1      18.692  -0.887  53.203  1.00  0.00     0.009 A 
HETATM   15  C11 UNL     1      18.087  -0.483  52.044  1.00  0.00    -0.062 A 
HETATM   16  C12 UNL     1      16.669  -0.720  51.747  1.00  0.00     0.048 C 
HETATM   17  C13 UNL     1      18.872   0.186  51.119  1.00  0.00     0.009 A 
HETATM   18  C14 UNL     1      20.197   0.407  51.407  1.00  0.00     0.030 A 
ENDBRANCH  10  12
ENDBRANCH   6   8
BRANCH   4  19
HETATM   19  N2  UNL     1      26.776   3.211  51.026  1.00  0.00    -0.222 N 
HETATM   20  H4  UNL     1      27.468   3.836  51.544  1.00  0.00     0.177 HD
BRANCH  19  21
HETATM   21  C4  UNL     1      26.403   3.370  49.645  1.00  0.00     0.153 C 
BRANCH  21  22
HETATM   22  C5  UNL     1      26.601   4.739  49.084  1.00  0.00     0.135 C 
HETATM   23 CL1  UNL     1      28.218   5.069  48.480  1.00  0.00    -0.129 Cl
ENDBRANCH  21  22
ENDBRANCH  19  21
ENDBRANCH   4  19
TORSDOF 5
ENDMDL
MODEL 2
REMARK VINA RESULT:      -7.2      4.106      8.230
REMARK  5 active torsions:
REMARK  status: ('A' for Active; 'I' for Inactive)
REMARK    1  A    between atoms: C3_4  and  N2_5 
REMARK    2  A    between atoms: N2_5  and  C4_6 
REMARK    3  A    between atoms: C4_6  and  C5_7 
REMARK    4  A    between atoms: C6_10  and  C7_11 
REMARK       I    between atoms: C7_11  and  N4_13 
REMARK    5  A    between atoms: N4_13  and  C8_14 
ROOT
HETATM    1  C1  UNL     1      20.835   0.882  49.544  1.00  0.00     0.066 C 
HETATM    2  C2  UNL     1      21.017   0.716  51.009  1.00  0.00     0.030 A 
HETATM    3  N1  UNL     1      20.045   0.087  51.630  1.00  0.00    -0.073 NA
HETATM    4  C3  UNL     1      20.216  -0.077  53.055  1.00  0.00     0.718 A 
HETATM    5  N3  UNL     1      21.246   0.371  53.625  1.00  0.00    -0.090 NA
HETATM    6  C6  UNL     1      22.363   1.061  53.096  1.00  0.00     0.225 A 
HETATM    7  C15 UNL     1      22.249   1.256  51.618  1.00  0.00     0.092 A 
ENDROOT
BRANCH   6   8
HETATM    8  C7  UNL     1      23.662   0.396  53.461  1.00  0.00     0.248 C 
HETATM    9  O1  UNL     1      23.618  -0.618  54.158  1.00  0.00    -0.271 OA
HETATM   10  N4  UNL     1      24.906   0.910  53.023  1.00  0.00    -0.325 N 
HETATM   11  H10 UNL     1      24.800   1.766  52.438  1.00  0.00     0.169 HD
BRANCH  10  12
HETATM   12  C8  UNL     1      26.189   0.422  53.273  1.00  0.00     0.034 A 
HETATM   13  C9  UNL     1      26.653  -0.669  52.571  1.00  0.00     0.030 A 
HETATM   14  C10 UNL     1      27.890  -1.215  52.737  1.00  0.00     0.009 A 
HETATM   15  C11 UNL     1      28.779  -0.700  53.641  1.00  0.00    -0.062 A 
HETATM   16  C12 UNL     1      30.124  -1.249  53.854  1.00  0.00     0.048 C 
HETATM   17  C13 UNL     1      28.369   0.398  54.379  1.00  0.00     0.009 A 
HETATM   18  C14 UNL     1      27.110   0.908  54.169  1.00  0.00     0.030 A 
ENDBRANCH  10  12
ENDBRANCH   6   8
BRANCH   4  19
HETATM   19  N2  UNL     1      19.202  -0.748  53.822  1.00  0.00    -0.222 N 
HETATM   20  H4  UNL     1      19.280  -0.672  54.883  1.00  0.00     0.177 HD
BRANCH  19  21
HETATM   21  C4  UNL     1      18.168  -1.469  53.126  1.00  0.00     0.153 C 
BRANCH  21  22
HETATM   22  C5  UNL     1      17.791  -2.783  53.725  1.00  0.00     0.135 C 
HETATM   23 CL1  UNL     1      16.352  -3.526  53.045  1.00  0.00    -0.129 Cl
ENDBRANCH  21  22
ENDBRANCH  19  21
ENDBRANCH   4  19
TORSDOF 5
ENDMDL
MODEL 3
REMARK VINA RESULT:      -7.2      3.538      7.148
REMARK  5 active torsions:
REMARK  status: ('A' for Active; 'I' for Inactive)
REMARK    1  A    between atoms: C3_4  and  N2_5 
REMARK    2  A    between atoms: N2_5  and  C4_6 
REMARK    3  A    between atoms: C4_6  and  C5_7 
REMARK    4  A    between atoms: C6_10  and  C7_11 
REMARK       I    between atoms: C7_11  and  N4_13 
REMARK    5  A    between atoms: N4_13  and  C8_14 
ROOT
HETATM    1  C1  UNL     1      28.763   0.161  54.917  1.00  0.00     0.066 C 
HETATM    2  C2  UNL     1      27.509   0.175  54.120  1.00  0.00     0.030 A 
HETATM    3  N1  UNL     1      26.454  -0.330  54.719  1.00  0.00    -0.073 NA
HETATM    4  C3  UNL     1      25.232  -0.320  53.949  1.00  0.00     0.718 A 
HETATM    5  N3  UNL     1      25.224   0.152  52.780  1.00  0.00    -0.090 NA
HETATM    6  C6  UNL     1      26.267   0.722  52.012  1.00  0.00     0.225 A 
HETATM    7  C15 UNL     1      27.561   0.747  52.760  1.00  0.00     0.092 A 
ENDROOT
BRANCH   6   8
HETATM    8  C7  UNL     1      25.907   2.089  51.497  1.00  0.00     0.248 C 
HETATM    9  O1  UNL     1      25.143   2.779  52.173  1.00  0.00    -0.271 OA
HETATM   10  N4  UNL     1      26.421   2.579  50.273  1.00  0.00    -0.325 N 
HETATM   11  H10 UNL     1      27.057   1.898  49.806  1.00  0.00     0.169 HD
BRANCH  10  12
HETATM   12  C8  UNL     1      26.187   3.809  49.658  1.00  0.00     0.034 A 
HETATM   13  C9  UNL     1      27.246   4.543  49.171  1.00  0.00     0.030 A 
HETATM   14  C10 UNL     1      27.120   5.748  48.550  1.00  0.00     0.009 A 
HETATM   15  C11 UNL     1      25.895   6.329  48.364  1.00  0.00    -0.062 A 
HETATM   16  C12 UNL     1      25.706   7.623  47.698  1.00  0.00     0.048 C 
HETATM   17  C13 UNL     1      24.789   5.639  48.835  1.00  0.00     0.009 A 
HETATM   18  C14 UNL     1      24.975   4.425  49.453  1.00  0.00     0.030 A 
ENDBRANCH  10  12
ENDBRANCH   6   8
BRANCH   4  19
HETATM   19  N2  UNL     1      24.026  -0.856  54.518  1.00  0.00    -0.222 N 
HETATM   20  H4  UNL     1      24.125  -1.365  55.450  1.00  0.00     0.177 HD
BRANCH  19  21
HETATM   21  C4  UNL     1      22.786  -0.680  53.809  1.00  0.00     0.153 C 
BRANCH  21  22
HETATM   22  C5  UNL     1      21.591  -0.421  54.665  1.00  0.00     0.135 C 
HETATM   23 CL1  UNL     1      20.232   0.327  53.841  1.00  0.00    -0.129 Cl
ENDBRANCH  21  22
ENDBRANCH  19  21
ENDBRANCH   4  19
TORSDOF 5
ENDMDL
MODEL 4
REMARK VINA RESULT:      -7.2      3.360      6.767
REMARK  5 active torsions:
REMARK  status: ('A' for Active; 'I' for Inactive)
REMARK    1  A    between atoms: C3_4  and  N2_5 
REMARK    2  A    between atoms: N2_5  and  C4_6 
REMARK    3  A    between atoms: C4_6  and  C5_7 
REMARK    4  A    between atoms: C6_10  and  C7_11 
REMARK       I    between atoms: C7_11  and  N4_13 
REMARK    5  A    between atoms: N4_13  and  C8_14 
ROOT
HETATM    1  C1  UNL     1      21.092   3.432  52.309  1.00  0.00     0.066 C 
HETATM    2  C2  UNL     1      22.353   3.964  51.731  1.00  0.00     0.030 A 
HETATM    3  N1  UNL     1      22.610   5.224  52.002  1.00  0.00    -0.073 NA
HETATM    4  C3  UNL     1      23.834   5.748  51.442  1.00  0.00     0.718 A 
HETATM    5  N3  UNL     1      24.578   5.009  50.743  1.00  0.00    -0.090 NA
HETATM    6  C6  UNL     1      24.435   3.652  50.369  1.00  0.00     0.225 A 
HETATM    7  C15 UNL     1      23.186   3.048  50.926  1.00  0.00     0.092 A 
ENDROOT
BRANCH   6   8
HETATM    8  C7  UNL     1      25.646   2.835  50.733  1.00  0.00     0.248 C 
HETATM    9  O1  UNL     1      26.545   2.731  49.899  1.00  0.00    -0.271 OA
HETATM   10  N4  UNL     1      25.758   2.200  51.993  1.00  0.00    -0.325 N 
HETATM   11  H10 UNL     1      24.932   2.373  52.603  1.00  0.00     0.169 HD
BRANCH  10  12
HETATM   12  C8  UNL     1      26.801   1.412  52.482  1.00  0.00     0.034 A 
HETATM   13  C9  UNL     1      26.715   0.039  52.402  1.00  0.00     0.030 A 
HETATM   14  C10 UNL     1      27.679  -0.814  52.844  1.00  0.00     0.009 A 
HETATM   15  C11 UNL     1      28.833  -0.350  53.416  1.00  0.00    -0.062 A 
HETATM   16  C12 UNL     1      29.903  -1.227  53.904  1.00  0.00     0.048 C 
HETATM   17  C13 UNL     1      28.977   1.024  53.526  1.00  0.00     0.009 A 
HETATM   18  C14 UNL     1      27.972   1.838  53.062  1.00  0.00     0.030 A 
ENDBRANCH  10  12
ENDBRANCH   6   8
BRANCH   4  19
HETATM   19  N2  UNL     1      24.198   7.118  51.680  1.00  0.00    -0.222 N 
HETATM   20  H4  UNL     1      24.745   7.317  52.574  1.00  0.00     0.177 HD
BRANCH  19  21
HETATM   21  C4  UNL     1      23.808   8.117  50.720  1.00  0.00     0.153 C 
BRANCH  21  22
HETATM   22  C5  UNL     1      24.865   8.512  49.743  1.00  0.00     0.135 C 
HETATM   23 CL1  UNL     1      26.504   8.078  50.203  1.00  0.00    -0.129 Cl
ENDBRANCH  21  22
ENDBRANCH  19  21
ENDBRANCH   4  19
TORSDOF 5
ENDMDL
MODEL 5
REMARK VINA RESULT:      -7.0      3.273      7.385
REMARK  5 active torsions:
REMARK  status: ('A' for Active; 'I' for Inactive)
REMARK    1  A    between atoms: C3_4  and  N2_5 
REMARK    2  A    between atoms: N2_5  and  C4_6 
REMARK    3  A    between atoms: C4_6  and  C5_7 
REMARK    4  A    between atoms: C6_10  and  C7_11 
REMARK       I    between atoms: C7_11  and  N4_13 
REMARK    5  A    between atoms: N4_13  and  C8_14 
ROOT
HETATM    1  C1  UNL     1      21.075   2.196  48.345  1.00  0.00     0.066 C 
HETATM    2  C2  UNL     1      21.457   1.938  49.758  1.00  0.00     0.030 A 
HETATM    3  N1  UNL     1      20.703   1.071  50.396  1.00  0.00    -0.073 NA
HETATM    4  C3  UNL     1      21.069   0.816  51.770  1.00  0.00     0.718 A 
HETATM    5  N3  UNL     1      22.054   1.410  52.284  1.00  0.00    -0.090 NA
HETATM    6  C6  UNL     1      22.947   2.358  51.730  1.00  0.00     0.225 A 
HETATM    7  C15 UNL     1      22.625   2.659  50.301  1.00  0.00     0.092 A 
ENDROOT
BRANCH   6   8
HETATM    8  C7  UNL     1      24.384   1.940  51.889  1.00  0.00     0.248 C 
HETATM    9  O1  UNL     1      25.220   2.442  51.137  1.00  0.00    -0.271 OA
HETATM   10  N4  UNL     1      24.776   0.997  52.869  1.00  0.00    -0.325 N 
HETATM   11  H10 UNL     1      23.974   0.656  53.439  1.00  0.00     0.169 HD
BRANCH  10  12
HETATM   12  C8  UNL     1      26.052   0.503  53.143  1.00  0.00     0.034 A 
HETATM   13  C9  UNL     1      26.451  -0.699  52.599  1.00  0.00     0.030 A 
HETATM   14  C10 UNL     1      27.674  -1.261  52.802  1.00  0.00     0.009 A 
HETATM   15  C11 UNL     1      28.618  -0.650  53.583  1.00  0.00    -0.062 A 
HETATM   16  C12 UNL     1      29.952  -1.212  53.828  1.00  0.00     0.048 C 
HETATM   17  C13 UNL     1      28.275   0.562  54.159  1.00  0.00     0.009 A 
HETATM   18  C14 UNL     1      27.026   1.083  53.920  1.00  0.00     0.030 A 
ENDBRANCH  10  12
ENDBRANCH   6   8
BRANCH   4  19
HETATM   19  N2  UNL     1      20.300  -0.114  52.552  1.00  0.00    -0.222 N 
HETATM   20  H4  UNL     1      19.617  -0.735  52.017  1.00  0.00     0.177 HD
BRANCH  19  21
HETATM   21  C4  UNL     1      20.492  -0.146  53.978  1.00  0.00     0.153 C 
BRANCH  21  22
HETATM   22  C5  UNL     1      21.180  -1.363  54.503  1.00  0.00     0.135 C 
HETATM   23 CL1  UNL     1      22.858  -1.129  54.964  1.00  0.00    -0.129 Cl
ENDBRANCH  21  22
ENDBRANCH  19  21
ENDBRANCH   4  19
TORSDOF 5
ENDMDL
MODEL 6
REMARK VINA RESULT:      -6.9      3.590      7.459
REMARK  5 active torsions:
REMARK  status: ('A' for Active; 'I' for Inactive)
REMARK    1  A    between atoms: C3_4  and  N2_5 
REMARK    2  A    between atoms: N2_5  and  C4_6 
REMARK    3  A    between atoms: C4_6  and  C5_7 
REMARK    4  A    between atoms: C6_10  and  C7_11 
REMARK       I    between atoms: C7_11  and  N4_13 
REMARK    5  A    between atoms: N4_13  and  C8_14 
ROOT
HETATM    1  C1  UNL     1      22.294   3.965  47.616  1.00  0.00     0.066 C 
HETATM    2  C2  UNL     1      22.745   3.957  49.031  1.00  0.00     0.030 A 
HETATM    3  N1  UNL     1      21.806   3.727  49.922  1.00  0.00    -0.073 NA
HETATM    4  C3  UNL     1      22.239   3.720  51.300  1.00  0.00     0.718 A 
HETATM    5  N3  UNL     1      23.448   3.927  51.585  1.00  0.00    -0.090 NA
HETATM    6  C6  UNL     1      24.559   4.187  50.748  1.00  0.00     0.225 A 
HETATM    7  C15 UNL     1      24.176   4.200  49.303  1.00  0.00     0.092 A 
ENDROOT
BRANCH   6   8
HETATM    8  C7  UNL     1      25.695   3.233  51.003  1.00  0.00     0.248 C 
HETATM    9  O1  UNL     1      26.420   2.930  50.056  1.00  0.00    -0.271 OA
HETATM   10  N4  UNL     1      25.932   2.693  52.290  1.00  0.00    -0.325 N 
HETATM   11  H10 UNL     1      25.250   3.035  52.999  1.00  0.00     0.169 HD
BRANCH  10  12
HETATM   12  C8  UNL     1      26.928   1.802  52.692  1.00  0.00     0.034 A 
HETATM   13  C9  UNL     1      26.749   0.448  52.507  1.00  0.00     0.030 A 
HETATM   14  C10 UNL     1      27.662  -0.498  52.859  1.00  0.00     0.009 A 
HETATM   15  C11 UNL     1      28.854  -0.157  53.437  1.00  0.00    -0.062 A 
HETATM   16  C12 UNL     1      29.873  -1.138  53.831  1.00  0.00     0.048 C 
HETATM   17  C13 UNL     1      29.092   1.191  53.650  1.00  0.00     0.009 A 
HETATM   18  C14 UNL     1      28.135   2.104  53.275  1.00  0.00     0.030 A 
ENDBRANCH  10  12
ENDBRANCH   6   8
BRANCH   4  19
HETATM   19  N2  UNL     1      21.282   3.481  52.346  1.00  0.00    -0.222 N 
HETATM   20  H4  UNL     1      21.253   4.197  53.137  1.00  0.00     0.177 HD
BRANCH  19  21
HETATM   21  C4  UNL     1      20.443   2.314  52.266  1.00  0.00     0.153 C 
BRANCH  21  22
HETATM   22  C5  UNL     1      21.098   1.028  52.646  1.00  0.00     0.135 C 
HETATM   23 CL1  UNL     1      20.779   0.485  54.285  1.00  0.00    -0.129 Cl
ENDBRANCH  21  22
ENDBRANCH  19  21
ENDBRANCH   4  19
TORSDOF 5
ENDMDL
MODEL 7
REMARK VINA RESULT:      -6.9      2.854      6.452
REMARK  5 active torsions:
REMARK  status: ('A' for Active; 'I' for Inactive)
REMARK    1  A    between atoms: C3_4  and  N2_5 
REMARK    2  A    between atoms: N2_5  and  C4_6 
REMARK    3  A    between atoms: C4_6  and  C5_7 
REMARK    4  A    between atoms: C6_10  and  C7_11 
REMARK       I    between atoms: C7_11  and  N4_13 
REMARK    5  A    between atoms: N4_13  and  C8_14 
ROOT
HETATM    1  C1  UNL     1      22.066  -1.119  53.491  1.00  0.00     0.066 C 
HETATM    2  C2  UNL     1      23.239  -0.211  53.414  1.00  0.00     0.030 A 
HETATM    3  N1  UNL     1      24.404  -0.773  53.647  1.00  0.00    -0.073 NA
HETATM    4  C3  UNL     1      25.549   0.105  53.575  1.00  0.00     0.718 A 
HETATM    5  N3  UNL     1      25.394   1.325  53.303  1.00  0.00    -0.090 NA
HETATM    6  C6  UNL     1      24.218   2.065  53.032  1.00  0.00     0.225 A 
HETATM    7  C15 UNL     1      22.995   1.207  53.085  1.00  0.00     0.092 A 
ENDROOT
BRANCH   6   8
HETATM    8  C7  UNL     1      24.308   2.809  51.727  1.00  0.00     0.248 C 
HETATM    9  O1  UNL     1      23.966   2.221  50.701  1.00  0.00    -0.271 OA
HETATM   10  N4  UNL     1      24.771   4.145  51.667  1.00  0.00    -0.325 N 
HETATM   11  H10 UNL     1      25.022   4.523  52.604  1.00  0.00     0.169 HD
BRANCH  10  12
HETATM   12  C8  UNL     1      24.918   4.968  50.549  1.00  0.00     0.034 A 
HETATM   13  C9  UNL     1      23.890   5.809  50.181  1.00  0.00     0.030 A 
HETATM   14  C10 UNL     1      23.940   6.653  49.113  1.00  0.00     0.009 A 
HETATM   15  C11 UNL     1      25.046   6.723  48.311  1.00  0.00    -0.062 A 
HETATM   16  C12 UNL     1      25.150   7.618  47.152  1.00  0.00     0.048 C 
HETATM   17  C13 UNL     1      26.113   5.899  48.631  1.00  0.00     0.009 A 
HETATM   18  C14 UNL     1      26.009   5.067  49.720  1.00  0.00     0.030 A 
ENDBRANCH  10  12
ENDBRANCH   6   8
BRANCH   4  19
HETATM   19  N2  UNL     1      26.865  -0.418  53.820  1.00  0.00    -0.222 N 
HETATM   20  H4  UNL     1      27.142  -1.288  53.268  1.00  0.00     0.177 HD
BRANCH  19  21
HETATM   21  C4  UNL     1      27.709   0.248  54.777  1.00  0.00     0.153 C 
BRANCH  21  22
HETATM   22  C5  UNL     1      28.946   0.868  54.217  1.00  0.00     0.135 C 
HETATM   23 CL1  UNL     1      28.764   2.527  53.669  1.00  0.00    -0.129 Cl
ENDBRANCH  21  22
ENDBRANCH  19  21
ENDBRANCH   4  19
TORSDOF 5
ENDMDL
MODEL 8
REMARK VINA RESULT:      -6.8      1.175      1.580
REMARK  5 active torsions:
REMARK  status: ('A' for Active; 'I' for Inactive)
REMARK    1  A    between atoms: C3_4  and  N2_5 
REMARK    2  A    between atoms: N2_5  and  C4_6 
REMARK    3  A    between atoms: C4_6  and  C5_7 
REMARK    4  A    between atoms: C6_10  and  C7_11 
REMARK       I    between atoms: C7_11  and  N4_13 
REMARK    5  A    between atoms: N4_13  and  C8_14 
ROOT
HETATM    1  C1  UNL     1      27.420  -1.208  52.738  1.00  0.00     0.066 C 
HETATM    2  C2  UNL     1      26.341  -0.187  52.735  1.00  0.00     0.030 A 
HETATM    3  N1  UNL     1      26.614   0.920  52.081  1.00  0.00    -0.073 NA
HETATM    4  C3  UNL     1      25.569   1.918  52.076  1.00  0.00     0.718 A 
HETATM    5  N3  UNL     1      24.482   1.699  52.673  1.00  0.00    -0.090 NA
HETATM    6  C6  UNL     1      24.048   0.571  53.410  1.00  0.00     0.225 A 
HETATM    7  C15 UNL     1      25.087  -0.504  53.446  1.00  0.00     0.092 A 
ENDROOT
BRANCH   6   8
HETATM    8  C7  UNL     1      22.732   0.041  52.909  1.00  0.00     0.248 C 
HETATM    9  O1  UNL     1      22.575  -1.179  52.873  1.00  0.00    -0.271 OA
HETATM   10  N4  UNL     1      21.697   0.909  52.488  1.00  0.00    -0.325 N 
HETATM   11  H10 UNL     1      21.958   1.914  52.574  1.00  0.00     0.169 HD
BRANCH  10  12
HETATM   12  C8  UNL     1      20.431   0.585  51.998  1.00  0.00     0.034 A 
HETATM   13  C9  UNL     1      20.074   0.966  50.722  1.00  0.00     0.030 A 
HETATM   14  C10 UNL     1      18.867   0.692  50.154  1.00  0.00     0.009 A 
HETATM   15  C11 UNL     1      17.901  -0.000  50.831  1.00  0.00    -0.062 A 
HETATM   16  C12 UNL     1      16.588  -0.324  50.261  1.00  0.00     0.048 C 
HETATM   17  C13 UNL     1      18.201  -0.409  52.120  1.00  0.00     0.009 A 
HETATM   18  C14 UNL     1      19.434  -0.106  52.645  1.00  0.00     0.030 A 
ENDBRANCH  10  12
ENDBRANCH   6   8
BRANCH   4  19
HETATM   19  N2  UNL     1      25.777   3.164  51.391  1.00  0.00    -0.222 N 
HETATM   20  H4  UNL     1      25.576   4.052  51.948  1.00  0.00     0.177 HD
BRANCH  19  21
HETATM   21  C4  UNL     1      26.231   3.139  50.025  1.00  0.00     0.153 C 
BRANCH  21  22
HETATM   22  C5  UNL     1      26.261   4.463  49.337  1.00  0.00     0.135 C 
HETATM   23 CL1  UNL     1      27.799   4.883  48.599  1.00  0.00    -0.129 Cl
ENDBRANCH  21  22
ENDBRANCH  19  21
ENDBRANCH   4  19
TORSDOF 5
ENDMDL
MODEL 9
REMARK VINA RESULT:      -6.7      3.331      5.364
REMARK  5 active torsions:
REMARK  status: ('A' for Active; 'I' for Inactive)
REMARK    1  A    between atoms: C3_4  and  N2_5 
REMARK    2  A    between atoms: N2_5  and  C4_6 
REMARK    3  A    between atoms: C4_6  and  C5_7 
REMARK    4  A    between atoms: C6_10  and  C7_11 
REMARK       I    between atoms: C7_11  and  N4_13 
REMARK    5  A    between atoms: N4_13  and  C8_14 
ROOT
HETATM    1  C1  UNL     1      21.572   8.204  49.720  1.00  0.00     0.066 C 
HETATM    2  C2  UNL     1      22.743   7.333  49.995  1.00  0.00     0.030 A 
HETATM    3  N1  UNL     1      23.873   7.964  50.227  1.00  0.00    -0.073 NA
HETATM    4  C3  UNL     1      25.016   7.123  50.493  1.00  0.00     0.718 A 
HETATM    5  N3  UNL     1      24.894   5.869  50.493  1.00  0.00    -0.090 NA
HETATM    6  C6  UNL     1      23.758   5.056  50.263  1.00  0.00     0.225 A 
HETATM    7  C15 UNL     1      22.536   5.871  49.987  1.00  0.00     0.092 A 
ENDROOT
BRANCH   6   8
HETATM    8  C7  UNL     1      23.523   4.082  51.386  1.00  0.00     0.248 C 
HETATM    9  O1  UNL     1      23.544   4.513  52.539  1.00  0.00    -0.271 OA
HETATM   10  N4  UNL     1      23.286   2.709  51.138  1.00  0.00    -0.325 N 
HETATM   11  H10 UNL     1      23.291   2.480  50.122  1.00  0.00     0.169 HD
BRANCH  10  12
HETATM   12  C8  UNL     1      23.057   1.684  52.056  1.00  0.00     0.034 A 
HETATM   13  C9  UNL     1      21.782   1.466  52.533  1.00  0.00     0.030 A 
HETATM   14  C10 UNL     1      21.457   0.489  53.423  1.00  0.00     0.009 A 
HETATM   15  C11 UNL     1      22.402  -0.366  53.920  1.00  0.00    -0.062 A 
HETATM   16  C12 UNL     1      22.101  -1.437  54.877  1.00  0.00     0.048 C 
HETATM   17  C13 UNL     1      23.704  -0.196  53.478  1.00  0.00     0.009 A 
HETATM   18  C14 UNL     1      23.977   0.806  52.578  1.00  0.00     0.030 A 
ENDBRANCH  10  12
ENDBRANCH   6   8
BRANCH   4  19
HETATM   19  N2  UNL     1      26.297   7.721  50.754  1.00  0.00    -0.222 N 
HETATM   20  H4  UNL     1      26.795   7.410  51.645  1.00  0.00     0.177 HD
BRANCH  19  21
HETATM   21  C4  UNL     1      26.815   8.685  49.819  1.00  0.00     0.153 C 
BRANCH  21  22
HETATM   22  C5  UNL     1      27.932   8.201  48.955  1.00  0.00     0.135 C 
HETATM   23 CL1  UNL     1      27.601   6.720  48.070  1.00  0.00    -0.129 Cl
ENDBRANCH  21  22
ENDBRANCH  19  21
ENDBRANCH   4  19
TORSDOF 5
ENDMDL
