MODEL 1
REMARK VINA RESULT:      -9.2      0.000      0.000
REMARK  6 active torsions:
REMARK  status: ('A' for Active; 'I' for Inactive)
REMARK    1  A    between atoms: O1_2  and  C2_3 
REMARK    2  A    between atoms: C7_10  and  N3_11 
REMARK    3  A    between atoms: N3_11  and  C8_12 
REMARK    4  A    between atoms: C9_13  and  N4_14 
REMARK       I    between atoms: N4_14  and  C10_15 
REMARK       I    between atoms: C10_15  and  N5_17 
REMARK    5  A    between atoms: N5_17  and  C11_18 
REMARK    6  A    between atoms: C16_23  and  O3_24 
ROOT
HETATM    1  C8  UNL     1      26.206   0.384  52.954  1.00  0.00     0.057 A 
HETATM    2  C9  UNL     1      26.437   1.576  53.404  1.00  0.00     0.044 A 
HETATM    3  C18 UNL     1      27.874   1.576  53.724  1.00  0.00     0.093 A 
HETATM    4  C19 UNL     1      28.388   0.249  53.395  1.00  0.00    -0.076 A 
HETATM    5  C20 UNL     1      29.838   0.063  53.656  1.00  0.00     0.044 C 
HETATM    6  C21 UNL     1      27.375  -0.461  52.932  1.00  0.00     0.034 A 
ENDROOT
BRANCH   1   7
HETATM    7  N3  UNL     1      25.014  -0.224  52.485  1.00  0.00    -0.339 N 
HETATM    8  H7  UNL     1      25.033  -0.384  51.457  1.00  0.00     0.167 HD
BRANCH   7   9
HETATM    9  C7  UNL     1      23.987  -0.520  53.421  1.00  0.00     0.142 A 
HETATM   10  N2  UNL     1      24.360  -1.006  54.615  1.00  0.00    -0.224 NA
HETATM   11  C6  UNL     1      23.473  -1.320  55.577  1.00  0.00     0.236 A 
HETATM   12  N1  UNL     1      22.153  -1.158  55.381  1.00  0.00    -0.241 NA
HETATM   13  C5  UNL     1      21.748  -0.669  54.184  1.00  0.00     0.072 A 
HETATM   14  C4  UNL     1      20.401  -0.496  53.965  1.00  0.00     0.035 A 
HETATM   15  C22 UNL     1      22.643  -0.346  53.199  1.00  0.00     0.041 A 
HETATM   16  C3  UNL     1      19.983   0.001  52.749  1.00  0.00     0.039 A 
HETATM   17  C2  UNL     1      20.887   0.322  51.767  1.00  0.00     0.069 A 
HETATM   18  C23 UNL     1      22.235   0.143  52.001  1.00  0.00     0.054 A 
BRANCH  17  19
HETATM   19  O1  UNL     1      20.499   0.815  50.554  1.00  0.00    -0.356 OA
HETATM   20  C1  UNL     1      21.364   1.193  49.512  1.00  0.00     0.210 C 
ENDBRANCH  17  19
ENDBRANCH   7   9
ENDBRANCH   1   7
BRANCH   2  21
HETATM   21  N4  UNL     1      25.633   2.723  53.608  1.00  0.00    -0.310 N 
HETATM   22  C10 UNL     1      24.593   3.250  52.806  1.00  0.00     0.325 C 
HETATM   23  O2  UNL     1      24.263   2.699  51.750  1.00  0.00    -0.247 OA
HETATM   24  N5  UNL     1      23.841   4.417  53.101  1.00  0.00    -0.306 N 
HETATM   25  H9  UNL     1      24.072   4.942  53.997  1.00  0.00     0.171 HD
HETATM   26  H8  UNL     1      25.760   3.322  54.445  1.00  0.00     0.170 HD
BRANCH  24  27
HETATM   27  C11 UNL     1      22.816   4.804  52.163  1.00  0.00     0.069 A 
HETATM   28  C12 UNL     1      21.632   4.113  52.172  1.00  0.00     0.032 A 
HETATM   29  C13 UNL     1      20.639   4.473  51.276  1.00  0.00     0.002 A 
HETATM   30  C14 UNL     1      20.886   5.517  50.410  1.00  0.00     0.003 A 
HETATM   31  C15 UNL     1      22.072   6.214  50.397  1.00  0.00     0.039 A 
HETATM   32  C16 UNL     1      23.082   5.867  51.291  1.00  0.00     0.095 A 
BRANCH  32  33
HETATM   33  O3  UNL     1      24.326   6.481  51.388  1.00  0.00    -0.354 OA
HETATM   34  C17 UNL     1      25.199   6.364  50.272  1.00  0.00     0.210 C 
ENDBRANCH  32  33
ENDBRANCH  24  27
ENDBRANCH   2  21
TORSDOF 6
ENDMDL
MODEL 2
REMARK VINA RESULT:      -8.7      2.621      6.180
REMARK  6 active torsions:
REMARK  status: ('A' for Active; 'I' for Inactive)
REMARK    1  A    between atoms: O1_2  and  C2_3 
REMARK    2  A    between atoms: C7_10  and  N3_11 
REMARK    3  A    between atoms: N3_11  and  C8_12 
REMARK    4  A    between atoms: C9_13  and  N4_14 
REMARK       I    between atoms: N4_14  and  C10_15 
REMARK       I    between atoms: C10_15  and  N5_17 
REMARK    5  A    between atoms: N5_17  and  C11_18 
REMARK    6  A    between atoms: C16_23  and  O3_24 
ROOT
HETATM    1  C8  UNL     1      25.039   4.814  49.481  1.00  0.00     0.057 A 
HETATM    2  C9  UNL     1      26.144   4.140  49.437  1.00  0.00     0.044 A 
HETATM    3  C18 UNL     1      27.103   5.049  48.787  1.00  0.00     0.093 A 
HETATM    4  C19 UNL     1      26.387   6.286  48.488  1.00  0.00    -0.076 A 
HETATM    5  C20 UNL     1      27.207   7.331  47.823  1.00  0.00     0.044 C 
HETATM    6  C21 UNL     1      25.145   6.134  48.910  1.00  0.00     0.034 A 
ENDROOT
BRANCH   1   7
HETATM    7  N3  UNL     1      23.758   4.478  49.989  1.00  0.00    -0.339 N 
HETATM    8  H7  UNL     1      23.502   5.055  50.817  1.00  0.00     0.167 HD
BRANCH   7   9
HETATM    9  C7  UNL     1      23.021   3.447  49.349  1.00  0.00     0.142 A 
HETATM   10  N2  UNL     1      22.904   3.508  48.013  1.00  0.00    -0.224 NA
HETATM   11  C6  UNL     1      22.229   2.586  47.303  1.00  0.00     0.236 A 
HETATM   12  N1  UNL     1      21.633   1.545  47.910  1.00  0.00    -0.241 NA
HETATM   13  C5  UNL     1      21.735   1.458  49.259  1.00  0.00     0.072 A 
HETATM   14  C4  UNL     1      21.131   0.400  49.898  1.00  0.00     0.035 A 
HETATM   15  C22 UNL     1      22.420   2.392  49.990  1.00  0.00     0.041 A 
HETATM   16  C3  UNL     1      21.231   0.307  51.270  1.00  0.00     0.039 A 
HETATM   17  C2  UNL     1      21.920   1.247  51.995  1.00  0.00     0.069 A 
HETATM   18  C23 UNL     1      22.520   2.303  51.340  1.00  0.00     0.054 A 
BRANCH  17  19
HETATM   19  O1  UNL     1      22.034   1.177  53.354  1.00  0.00    -0.356 OA
HETATM   20  C1  UNL     1      21.344   0.278  54.186  1.00  0.00     0.210 C 
ENDBRANCH  17  19
ENDBRANCH   7   9
ENDBRANCH   1   7
BRANCH   2  21
HETATM   21  N4  UNL     1      26.522   2.844  49.859  1.00  0.00    -0.310 N 
HETATM   22  C10 UNL     1      26.329   2.209  51.109  1.00  0.00     0.325 C 
HETATM   23  O2  UNL     1      25.755   2.791  52.036  1.00  0.00    -0.247 OA
HETATM   24  N5  UNL     1      26.750   0.893  51.435  1.00  0.00    -0.306 N 
HETATM   25  H9  UNL     1      27.251   0.332  50.683  1.00  0.00     0.171 HD
HETATM   26  H8  UNL     1      27.019   2.197  49.217  1.00  0.00     0.170 HD
BRANCH  24  27
HETATM   27  C11 UNL     1      26.464   0.412  52.765  1.00  0.00     0.069 A 
HETATM   28  C12 UNL     1      25.235  -0.144  53.005  1.00  0.00     0.032 A 
HETATM   29  C13 UNL     1      24.947  -0.609  54.278  1.00  0.00     0.002 A 
HETATM   30  C14 UNL     1      25.915  -0.492  55.252  1.00  0.00     0.003 A 
HETATM   31  C15 UNL     1      27.151   0.065  55.015  1.00  0.00     0.039 A 
HETATM   32  C16 UNL     1      27.459   0.538  53.743  1.00  0.00     0.095 A 
BRANCH  32  33
HETATM   33  O3  UNL     1      28.663   1.121  53.363  1.00  0.00    -0.354 OA
HETATM   34  C17 UNL     1      28.903   2.456  53.793  1.00  0.00     0.210 C 
ENDBRANCH  32  33
ENDBRANCH  24  27
ENDBRANCH   2  21
TORSDOF 6
ENDMDL
MODEL 3
REMARK VINA RESULT:      -8.7      2.364      5.012
REMARK  6 active torsions:
REMARK  status: ('A' for Active; 'I' for Inactive)
REMARK    1  A    between atoms: O1_2  and  C2_3 
REMARK    2  A    between atoms: C7_10  and  N3_11 
REMARK    3  A    between atoms: N3_11  and  C8_12 
REMARK    4  A    between atoms: C9_13  and  N4_14 
REMARK       I    between atoms: N4_14  and  C10_15 
REMARK       I    between atoms: C10_15  and  N5_17 
REMARK    5  A    between atoms: N5_17  and  C11_18 
REMARK    6  A    between atoms: C16_23  and  O3_24 
ROOT
HETATM    1  C8  UNL     1      25.886   3.407  50.350  1.00  0.00     0.057 A 
HETATM    2  C9  UNL     1      24.887   4.142  50.720  1.00  0.00     0.044 A 
HETATM    3  C18 UNL     1      25.080   5.413  50.002  1.00  0.00     0.093 A 
HETATM    4  C19 UNL     1      26.295   5.276  49.204  1.00  0.00    -0.076 A 
HETATM    5  C20 UNL     1      26.649   6.475  48.403  1.00  0.00     0.044 C 
HETATM    6  C21 UNL     1      26.773   4.064  49.421  1.00  0.00     0.034 A 
ENDROOT
BRANCH   1   7
HETATM    7  N3  UNL     1      26.253   2.082  50.698  1.00  0.00    -0.339 N 
HETATM    8  H7  UNL     1      26.072   1.409  49.924  1.00  0.00     0.167 HD
BRANCH   7   9
HETATM    9  C7  UNL     1      26.787   1.840  51.992  1.00  0.00     0.142 A 
HETATM   10  N2  UNL     1      27.945   2.442  52.304  1.00  0.00    -0.224 NA
HETATM   11  C6  UNL     1      28.541   2.286  53.501  1.00  0.00     0.236 A 
HETATM   12  N1  UNL     1      27.994   1.508  54.450  1.00  0.00    -0.241 NA
HETATM   13  C5  UNL     1      26.823   0.888  54.162  1.00  0.00     0.072 A 
HETATM   14  C4  UNL     1      26.248   0.088  55.121  1.00  0.00     0.035 A 
HETATM   15  C22 UNL     1      26.209   1.042  52.947  1.00  0.00     0.041 A 
HETATM   16  C3  UNL     1      25.058  -0.545  54.833  1.00  0.00     0.039 A 
HETATM   17  C2  UNL     1      24.449  -0.386  53.613  1.00  0.00     0.069 A 
HETATM   18  C23 UNL     1      25.039   0.420  52.661  1.00  0.00     0.054 A 
BRANCH  17  19
HETATM   19  O1  UNL     1      23.270  -1.002  53.303  1.00  0.00    -0.356 OA
HETATM   20  C1  UNL     1      22.301  -1.423  54.229  1.00  0.00     0.210 C 
ENDBRANCH  17  19
ENDBRANCH   7   9
ENDBRANCH   1   7
BRANCH   2  21
HETATM   21  N4  UNL     1      23.789   3.942  51.589  1.00  0.00    -0.310 N 
HETATM   22  C10 UNL     1      22.609   3.184  51.394  1.00  0.00     0.325 C 
HETATM   23  O2  UNL     1      22.416   2.569  50.340  1.00  0.00    -0.247 OA
HETATM   24  N5  UNL     1      21.557   3.046  52.337  1.00  0.00    -0.306 N 
HETATM   25  H9  UNL     1      21.657   3.550  53.268  1.00  0.00     0.171 HD
HETATM   26  H8  UNL     1      23.765   4.381  52.530  1.00  0.00     0.170 HD
BRANCH  24  27
HETATM   27  C11 UNL     1      20.429   2.230  51.960  1.00  0.00     0.069 A 
HETATM   28  C12 UNL     1      20.523   0.873  52.128  1.00  0.00     0.032 A 
HETATM   29  C13 UNL     1      19.447   0.078  51.771  1.00  0.00     0.002 A 
HETATM   30  C14 UNL     1      18.322   0.689  51.260  1.00  0.00     0.003 A 
HETATM   31  C15 UNL     1      18.222   2.051  51.090  1.00  0.00     0.039 A 
HETATM   32  C16 UNL     1      19.293   2.867  51.444  1.00  0.00     0.095 A 
BRANCH  32  33
HETATM   33  O3  UNL     1      19.331   4.252  51.327  1.00  0.00    -0.354 OA
HETATM   34  C17 UNL     1      19.246   4.797  50.015  1.00  0.00     0.210 C 
ENDBRANCH  32  33
ENDBRANCH  24  27
ENDBRANCH   2  21
TORSDOF 6
ENDMDL
MODEL 4
REMARK VINA RESULT:      -8.5      1.962      5.309
REMARK  6 active torsions:
REMARK  status: ('A' for Active; 'I' for Inactive)
REMARK    1  A    between atoms: O1_2  and  C2_3 
REMARK    2  A    between atoms: C7_10  and  N3_11 
REMARK    3  A    between atoms: N3_11  and  C8_12 
REMARK    4  A    between atoms: C9_13  and  N4_14 
REMARK       I    between atoms: N4_14  and  C10_15 
REMARK       I    between atoms: C10_15  and  N5_17 
REMARK    5  A    between atoms: N5_17  and  C11_18 
REMARK    6  A    between atoms: C16_23  and  O3_24 
ROOT
HETATM    1  C8  UNL     1      20.681   1.623  51.629  1.00  0.00     0.057 A 
HETATM    2  C9  UNL     1      21.058   2.838  51.872  1.00  0.00     0.044 A 
HETATM    3  C18 UNL     1      19.814   3.624  51.831  1.00  0.00     0.093 A 
HETATM    4  C19 UNL     1      18.727   2.694  51.539  1.00  0.00    -0.076 A 
HETATM    5  C20 UNL     1      17.382   3.319  51.459  1.00  0.00     0.044 C 
HETATM    6  C21 UNL     1      19.260   1.492  51.418  1.00  0.00     0.034 A 
ENDROOT
BRANCH   1   7
HETATM    7  N3  UNL     1      21.418   0.415  51.535  1.00  0.00    -0.339 N 
HETATM    8  H7  UNL     1      21.555   0.116  50.547  1.00  0.00     0.167 HD
BRANCH   7   9
HETATM    9  C7  UNL     1      21.851  -0.213  52.733  1.00  0.00     0.142 A 
HETATM   10  N2  UNL     1      20.932  -0.880  53.448  1.00  0.00    -0.224 NA
HETATM   11  C6  UNL     1      21.230  -1.513  54.597  1.00  0.00     0.236 A 
HETATM   12  N1  UNL     1      22.481  -1.506  55.087  1.00  0.00    -0.241 NA
HETATM   13  C5  UNL     1      23.430  -0.840  54.385  1.00  0.00     0.072 A 
HETATM   14  C4  UNL     1      24.717  -0.821  54.871  1.00  0.00     0.035 A 
HETATM   15  C22 UNL     1      23.137  -0.193  53.214  1.00  0.00     0.041 A 
HETATM   16  C3  UNL     1      25.686  -0.145  54.161  1.00  0.00     0.039 A 
HETATM   17  C2  UNL     1      25.383   0.501  52.988  1.00  0.00     0.069 A 
HETATM   18  C23 UNL     1      24.088   0.473  52.514  1.00  0.00     0.054 A 
BRANCH  17  19
HETATM   19  O1  UNL     1      26.325   1.178  52.266  1.00  0.00    -0.356 OA
HETATM   20  C1  UNL     1      27.366   1.953  52.806  1.00  0.00     0.210 C 
ENDBRANCH  17  19
ENDBRANCH   7   9
ENDBRANCH   1   7
BRANCH   2  21
HETATM   21  N4  UNL     1      22.309   3.444  52.136  1.00  0.00    -0.310 N 
HETATM   22  C10 UNL     1      23.299   3.902  51.232  1.00  0.00     0.325 C 
HETATM   23  O2  UNL     1      23.140   3.801  50.011  1.00  0.00    -0.247 OA
HETATM   24  N5  UNL     1      24.531   4.501  51.601  1.00  0.00    -0.306 N 
HETATM   25  H9  UNL     1      24.734   4.620  52.638  1.00  0.00     0.171 HD
HETATM   26  H8  UNL     1      22.625   3.615  53.109  1.00  0.00     0.170 HD
BRANCH  24  27
HETATM   27  C11 UNL     1      25.419   4.907  50.538  1.00  0.00     0.069 A 
HETATM   28  C12 UNL     1      26.226   3.957  49.967  1.00  0.00     0.032 A 
HETATM   29  C13 UNL     1      27.083   4.333  48.946  1.00  0.00     0.002 A 
HETATM   30  C14 UNL     1      27.086   5.652  48.546  1.00  0.00     0.003 A 
HETATM   31  C15 UNL     1      26.277   6.609  49.116  1.00  0.00     0.039 A 
HETATM   32  C16 UNL     1      25.409   6.250  50.143  1.00  0.00     0.095 A 
BRANCH  32  33
HETATM   33  O3  UNL     1      24.539   7.109  50.807  1.00  0.00    -0.354 OA
HETATM   34  C17 UNL     1      23.800   8.028  50.012  1.00  0.00     0.210 C 
ENDBRANCH  32  33
ENDBRANCH  24  27
ENDBRANCH   2  21
TORSDOF 6
ENDMDL
MODEL 5
REMARK VINA RESULT:      -8.2      2.791      6.895
REMARK  6 active torsions:
REMARK  status: ('A' for Active; 'I' for Inactive)
REMARK    1  A    between atoms: O1_2  and  C2_3 
REMARK    2  A    between atoms: C7_10  and  N3_11 
REMARK    3  A    between atoms: N3_11  and  C8_12 
REMARK    4  A    between atoms: C9_13  and  N4_14 
REMARK       I    between atoms: N4_14  and  C10_15 
REMARK       I    between atoms: C10_15  and  N5_17 
REMARK    5  A    between atoms: N5_17  and  C11_18 
REMARK    6  A    between atoms: C16_23  and  O3_24 
ROOT
HETATM    1  C8  UNL     1      25.958   2.494  51.604  1.00  0.00     0.057 A 
HETATM    2  C9  UNL     1      25.166   2.470  52.628  1.00  0.00     0.044 A 
HETATM    3  C18 UNL     1      26.027   2.062  53.750  1.00  0.00     0.093 A 
HETATM    4  C19 UNL     1      27.371   1.870  53.212  1.00  0.00    -0.076 A 
HETATM    5  C20 UNL     1      28.386   1.452  54.213  1.00  0.00     0.044 C 
HETATM    6  C21 UNL     1      27.318   2.132  51.919  1.00  0.00     0.034 A 
ENDROOT
BRANCH   1   7
HETATM    7  N3  UNL     1      25.718   2.811  50.243  1.00  0.00    -0.339 N 
HETATM    8  H7  UNL     1      25.805   1.977  49.625  1.00  0.00     0.167 HD
BRANCH   7   9
HETATM    9  C7  UNL     1      25.412   4.155  49.900  1.00  0.00     0.142 A 
HETATM   10  N2  UNL     1      24.189   4.609  50.215  1.00  0.00    -0.224 NA
HETATM   11  C6  UNL     1      23.791   5.865  49.939  1.00  0.00     0.236 A 
HETATM   12  N1  UNL     1      24.614   6.733  49.326  1.00  0.00    -0.241 NA
HETATM   13  C5  UNL     1      25.856   6.300  48.997  1.00  0.00     0.072 A 
HETATM   14  C4  UNL     1      26.713   7.174  48.370  1.00  0.00     0.035 A 
HETATM   15  C22 UNL     1      26.270   5.025  49.275  1.00  0.00     0.041 A 
HETATM   16  C3  UNL     1      27.977   6.740  48.032  1.00  0.00     0.039 A 
HETATM   17  C2  UNL     1      28.384   5.459  48.314  1.00  0.00     0.069 A 
HETATM   18  C23 UNL     1      27.513   4.594  48.944  1.00  0.00     0.054 A 
BRANCH  17  19
HETATM   19  O1  UNL     1      29.630   5.004  47.991  1.00  0.00    -0.356 OA
HETATM   20  C1  UNL     1      30.843   5.609  48.365  1.00  0.00     0.210 C 
ENDBRANCH  17  19
ENDBRANCH   7   9
ENDBRANCH   1   7
BRANCH   2  21
HETATM   21  N4  UNL     1      23.789   2.738  52.812  1.00  0.00    -0.310 N 
HETATM   22  C10 UNL     1      22.664   1.930  52.516  1.00  0.00     0.325 C 
HETATM   23  O2  UNL     1      22.801   0.807  52.021  1.00  0.00    -0.247 OA
HETATM   24  N5  UNL     1      21.311   2.295  52.741  1.00  0.00    -0.306 N 
HETATM   25  H9  UNL     1      21.119   3.251  53.166  1.00  0.00     0.171 HD
HETATM   26  H8  UNL     1      23.469   3.638  53.219  1.00  0.00     0.170 HD
BRANCH  24  27
HETATM   27  C11 UNL     1      20.294   1.339  52.375  1.00  0.00     0.069 A 
HETATM   28  C12 UNL     1      19.680   1.477  51.158  1.00  0.00     0.032 A 
HETATM   29  C13 UNL     1      18.702   0.566  50.794  1.00  0.00     0.002 A 
HETATM   30  C14 UNL     1      18.388  -0.445  51.677  1.00  0.00     0.003 A 
HETATM   31  C15 UNL     1      19.002  -0.588  52.900  1.00  0.00     0.039 A 
HETATM   32  C16 UNL     1      19.988   0.318  53.283  1.00  0.00     0.095 A 
BRANCH  32  33
HETATM   33  O3  UNL     1      20.689   0.294  54.484  1.00  0.00    -0.354 OA
HETATM   34  C17 UNL     1      21.447  -0.874  54.772  1.00  0.00     0.210 C 
ENDBRANCH  32  33
ENDBRANCH  24  27
ENDBRANCH   2  21
TORSDOF 6
ENDMDL
MODEL 6
REMARK VINA RESULT:      -8.1      2.975      8.810
REMARK  6 active torsions:
REMARK  status: ('A' for Active; 'I' for Inactive)
REMARK    1  A    between atoms: O1_2  and  C2_3 
REMARK    2  A    between atoms: C7_10  and  N3_11 
REMARK    3  A    between atoms: N3_11  and  C8_12 
REMARK    4  A    between atoms: C9_13  and  N4_14 
REMARK       I    between atoms: N4_14  and  C10_15 
REMARK       I    between atoms: C10_15  and  N5_17 
REMARK    5  A    between atoms: N5_17  and  C11_18 
REMARK    6  A    between atoms: C16_23  and  O3_24 
ROOT
HETATM    1  C8  UNL     1      23.585   6.690  50.974  1.00  0.00     0.057 A 
HETATM    2  C9  UNL     1      23.291   5.656  51.696  1.00  0.00     0.044 A 
HETATM    3  C18 UNL     1      21.890   5.358  51.358  1.00  0.00     0.093 A 
HETATM    4  C19 UNL     1      21.465   6.348  50.372  1.00  0.00    -0.076 A 
HETATM    5  C20 UNL     1      20.062   6.200  49.909  1.00  0.00     0.044 C 
HETATM    6  C21 UNL     1      22.493   7.146  50.148  1.00  0.00     0.034 A 
ENDROOT
BRANCH   1   7
HETATM    7  N3  UNL     1      24.782   7.441  50.859  1.00  0.00    -0.339 N 
HETATM    8  H7  UNL     1      24.766   8.298  51.449  1.00  0.00     0.167 HD
BRANCH   7   9
HETATM    9  C7  UNL     1      25.804   6.966  49.993  1.00  0.00     0.142 A 
HETATM   10  N2  UNL     1      25.863   5.643  49.776  1.00  0.00    -0.224 NA
HETATM   11  C6  UNL     1      26.788   5.083  48.974  1.00  0.00     0.236 A 
HETATM   12  N1  UNL     1      27.707   5.836  48.346  1.00  0.00    -0.241 NA
HETATM   13  C5  UNL     1      27.669   7.175  48.547  1.00  0.00     0.072 A 
HETATM   14  C4  UNL     1      28.602   7.963  47.913  1.00  0.00     0.035 A 
HETATM   15  C22 UNL     1      26.732   7.755  49.361  1.00  0.00     0.041 A 
HETATM   16  C3  UNL     1      28.569   9.326  48.114  1.00  0.00     0.039 A 
HETATM   17  C2  UNL     1      27.626   9.898  48.931  1.00  0.00     0.069 A 
HETATM   18  C23 UNL     1      26.698   9.096  49.561  1.00  0.00     0.054 A 
BRANCH  17  19
HETATM   19  O1  UNL     1      27.573  11.246  49.147  1.00  0.00    -0.356 OA
HETATM   20  C1  UNL     1      26.994  12.189  48.280  1.00  0.00     0.210 C 
ENDBRANCH  17  19
ENDBRANCH   7   9
ENDBRANCH   1   7
BRANCH   2  21
HETATM   21  N4  UNL     1      24.009   4.875  52.632  1.00  0.00    -0.310 N 
HETATM   22  C10 UNL     1      24.471   3.541  52.529  1.00  0.00     0.325 C 
HETATM   23  O2  UNL     1      24.267   2.874  51.509  1.00  0.00    -0.247 OA
HETATM   24  N5  UNL     1      25.188   2.841  53.534  1.00  0.00    -0.306 N 
HETATM   25  H9  UNL     1      25.400   3.356  54.441  1.00  0.00     0.171 HD
HETATM   26  H8  UNL     1      24.276   5.262  53.557  1.00  0.00     0.170 HD
BRANCH  24  27
HETATM   27  C11 UNL     1      25.579   1.482  53.250  1.00  0.00     0.069 A 
HETATM   28  C12 UNL     1      24.654   0.487  53.437  1.00  0.00     0.032 A 
HETATM   29  C13 UNL     1      25.016  -0.823  53.168  1.00  0.00     0.002 A 
HETATM   30  C14 UNL     1      26.296  -1.070  52.721  1.00  0.00     0.003 A 
HETATM   31  C15 UNL     1      27.228  -0.075  52.531  1.00  0.00     0.039 A 
HETATM   32  C16 UNL     1      26.883   1.248  52.796  1.00  0.00     0.095 A 
BRANCH  32  33
HETATM   33  O3  UNL     1      27.719   2.349  52.650  1.00  0.00    -0.354 OA
HETATM   34  C17 UNL     1      28.772   2.497  53.596  1.00  0.00     0.210 C 
ENDBRANCH  32  33
ENDBRANCH  24  27
ENDBRANCH   2  21
TORSDOF 6
ENDMDL
MODEL 7
REMARK VINA RESULT:      -8.0      2.385      6.293
REMARK  6 active torsions:
REMARK  status: ('A' for Active; 'I' for Inactive)
REMARK    1  A    between atoms: O1_2  and  C2_3 
REMARK    2  A    between atoms: C7_10  and  N3_11 
REMARK    3  A    between atoms: N3_11  and  C8_12 
REMARK    4  A    between atoms: C9_13  and  N4_14 
REMARK       I    between atoms: N4_14  and  C10_15 
REMARK       I    between atoms: C10_15  and  N5_17 
REMARK    5  A    between atoms: N5_17  and  C11_18 
REMARK    6  A    between atoms: C16_23  and  O3_24 
ROOT
HETATM    1  C8  UNL     1      25.071   1.456  51.652  1.00  0.00     0.057 A 
HETATM    2  C9  UNL     1      24.441   1.163  52.745  1.00  0.00     0.044 A 
HETATM    3  C18 UNL     1      25.429   0.430  53.553  1.00  0.00     0.093 A 
HETATM    4  C19 UNL     1      26.659   0.361  52.770  1.00  0.00    -0.076 A 
HETATM    5  C20 UNL     1      27.779  -0.353  53.436  1.00  0.00     0.044 C 
HETATM    6  C21 UNL     1      26.433   0.981  51.627  1.00  0.00     0.034 A 
ENDROOT
BRANCH   1   7
HETATM    7  N3  UNL     1      24.654   2.153  50.490  1.00  0.00    -0.339 N 
HETATM    8  H7  UNL     1      24.562   1.523  49.666  1.00  0.00     0.167 HD
BRANCH   7   9
HETATM    9  C7  UNL     1      24.433   3.553  50.578  1.00  0.00     0.142 A 
HETATM   10  N2  UNL     1      23.320   3.964  51.207  1.00  0.00    -0.224 NA
HETATM   11  C6  UNL     1      23.009   5.265  51.350  1.00  0.00     0.236 A 
HETATM   12  N1  UNL     1      23.812   6.227  50.863  1.00  0.00    -0.241 NA
HETATM   13  C5  UNL     1      24.943   5.840  50.224  1.00  0.00     0.072 A 
HETATM   14  C4  UNL     1      25.778   6.810  49.719  1.00  0.00     0.035 A 
HETATM   15  C22 UNL     1      25.268   4.518  50.073  1.00  0.00     0.041 A 
HETATM   16  C3  UNL     1      26.930   6.422  49.067  1.00  0.00     0.039 A 
HETATM   17  C2  UNL     1      27.247   5.095  48.921  1.00  0.00     0.069 A 
HETATM   18  C23 UNL     1      26.400   4.134  49.433  1.00  0.00     0.054 A 
BRANCH  17  19
HETATM   19  O1  UNL     1      28.382   4.686  48.279  1.00  0.00    -0.356 OA
HETATM   20  C1  UNL     1      29.551   5.450  48.121  1.00  0.00     0.210 C 
ENDBRANCH  17  19
ENDBRANCH   7   9
ENDBRANCH   1   7
BRANCH   2  21
HETATM   21  N4  UNL     1      23.131   1.407  53.219  1.00  0.00    -0.310 N 
HETATM   22  C10 UNL     1      21.900   0.848  52.798  1.00  0.00     0.325 C 
HETATM   23  O2  UNL     1      21.859   0.014  51.888  1.00  0.00    -0.247 OA
HETATM   24  N5  UNL     1      20.627   1.162  53.343  1.00  0.00    -0.306 N 
HETATM   25  H9  UNL     1      20.588   1.873  54.133  1.00  0.00     0.171 HD
HETATM   26  H8  UNL     1      22.957   2.082  53.988  1.00  0.00     0.170 HD
BRANCH  24  27
HETATM   27  C11 UNL     1      19.480   0.489  52.785  1.00  0.00     0.069 A 
HETATM   28  C12 UNL     1      19.093  -0.704  53.338  1.00  0.00     0.032 A 
HETATM   29  C13 UNL     1      17.993  -1.361  52.812  1.00  0.00     0.002 A 
HETATM   30  C14 UNL     1      17.331  -0.783  51.749  1.00  0.00     0.003 A 
HETATM   31  C15 UNL     1      17.715   0.415  51.191  1.00  0.00     0.039 A 
HETATM   32  C16 UNL     1      18.819   1.090  51.707  1.00  0.00     0.095 A 
BRANCH  32  33
HETATM   33  O3  UNL     1      19.317   2.303  51.244  1.00  0.00    -0.354 OA
HETATM   34  C17 UNL     1      19.913   2.311  49.952  1.00  0.00     0.210 C 
ENDBRANCH  32  33
ENDBRANCH  24  27
ENDBRANCH   2  21
TORSDOF 6
ENDMDL
MODEL 8
REMARK VINA RESULT:      -8.0      2.305      7.665
REMARK  6 active torsions:
REMARK  status: ('A' for Active; 'I' for Inactive)
REMARK    1  A    between atoms: O1_2  and  C2_3 
REMARK    2  A    between atoms: C7_10  and  N3_11 
REMARK    3  A    between atoms: N3_11  and  C8_12 
REMARK    4  A    between atoms: C9_13  and  N4_14 
REMARK       I    between atoms: N4_14  and  C10_15 
REMARK       I    between atoms: C10_15  and  N5_17 
REMARK    5  A    between atoms: N5_17  and  C11_18 
REMARK    6  A    between atoms: C16_23  and  O3_24 
ROOT
HETATM    1  C8  UNL     1      22.595   2.067  50.502  1.00  0.00     0.057 A 
HETATM    2  C9  UNL     1      22.497   1.434  51.627  1.00  0.00     0.044 A 
HETATM    3  C18 UNL     1      21.168   0.803  51.579  1.00  0.00     0.093 A 
HETATM    4  C19 UNL     1      20.564   1.168  50.301  1.00  0.00    -0.076 A 
HETATM    5  C20 UNL     1      19.205   0.614  50.076  1.00  0.00     0.044 C 
HETATM    6  C21 UNL     1      21.432   1.930  49.660  1.00  0.00     0.034 A 
ENDROOT
BRANCH   1   7
HETATM    7  N3  UNL     1      23.639   2.862  49.963  1.00  0.00    -0.339 N 
HETATM    8  H7  UNL     1      24.319   2.296  49.413  1.00  0.00     0.167 HD
BRANCH   7   9
HETATM    9  C7  UNL     1      23.640   4.257  50.230  1.00  0.00     0.142 A 
HETATM   10  N2  UNL     1      22.567   4.766  50.855  1.00  0.00    -0.224 NA
HETATM   11  C6  UNL     1      22.460   6.073  51.158  1.00  0.00     0.236 A 
HETATM   12  N1  UNL     1      23.439   6.939  50.844  1.00  0.00    -0.241 NA
HETATM   13  C5  UNL     1      24.534   6.451  50.213  1.00  0.00     0.072 A 
HETATM   14  C4  UNL     1      25.546   7.322  49.883  1.00  0.00     0.035 A 
HETATM   15  C22 UNL     1      24.652   5.123  49.900  1.00  0.00     0.041 A 
HETATM   16  C3  UNL     1      26.663   6.832  49.240  1.00  0.00     0.039 A 
HETATM   17  C2  UNL     1      26.773   5.499  48.930  1.00  0.00     0.069 A 
HETATM   18  C23 UNL     1      25.749   4.638  49.267  1.00  0.00     0.054 A 
BRANCH  17  19
HETATM   19  O1  UNL     1      27.868   4.988  48.294  1.00  0.00    -0.356 OA
HETATM   20  C1  UNL     1      29.160   5.541  48.322  1.00  0.00     0.210 C 
ENDBRANCH  17  19
ENDBRANCH   7   9
ENDBRANCH   1   7
BRANCH   2  21
HETATM   21  N4  UNL     1      23.351   1.277  52.744  1.00  0.00    -0.310 N 
HETATM   22  C10 UNL     1      24.763   1.181  52.794  1.00  0.00     0.325 C 
HETATM   23  O2  UNL     1      25.440   1.232  51.763  1.00  0.00    -0.247 OA
HETATM   24  N5  UNL     1      25.532   1.022  53.976  1.00  0.00    -0.306 N 
HETATM   25  H9  UNL     1      25.013   0.971  54.903  1.00  0.00     0.171 HD
HETATM   26  H8  UNL     1      22.967   1.213  53.706  1.00  0.00     0.170 HD
BRANCH  24  27
HETATM   27  C11 UNL     1      26.966   0.943  53.832  1.00  0.00     0.069 A 
HETATM   28  C12 UNL     1      27.695   2.098  53.945  1.00  0.00     0.032 A 
HETATM   29  C13 UNL     1      29.072   2.037  53.808  1.00  0.00     0.002 A 
HETATM   30  C14 UNL     1      29.652   0.810  53.564  1.00  0.00     0.003 A 
HETATM   31  C15 UNL     1      28.924  -0.352  53.450  1.00  0.00     0.039 A 
HETATM   32  C16 UNL     1      27.539  -0.311  53.585  1.00  0.00     0.095 A 
BRANCH  32  33
HETATM   33  O3  UNL     1      26.682  -1.402  53.494  1.00  0.00    -0.354 OA
HETATM   34  C17 UNL     1      26.992  -2.393  52.522  1.00  0.00     0.210 C 
ENDBRANCH  32  33
ENDBRANCH  24  27
ENDBRANCH   2  21
TORSDOF 6
ENDMDL
MODEL 9
REMARK VINA RESULT:      -7.8      5.875      9.802
REMARK  6 active torsions:
REMARK  status: ('A' for Active; 'I' for Inactive)
REMARK    1  A    between atoms: O1_2  and  C2_3 
REMARK    2  A    between atoms: C7_10  and  N3_11 
REMARK    3  A    between atoms: N3_11  and  C8_12 
REMARK    4  A    between atoms: C9_13  and  N4_14 
REMARK       I    between atoms: N4_14  and  C10_15 
REMARK       I    between atoms: C10_15  and  N5_17 
REMARK    5  A    between atoms: N5_17  and  C11_18 
REMARK    6  A    between atoms: C16_23  and  O3_24 
ROOT
HETATM    1  C8  UNL     1      28.631   6.688  48.327  1.00  0.00     0.057 A 
HETATM    2  C9  UNL     1      27.387   6.880  48.630  1.00  0.00     0.044 A 
HETATM    3  C18 UNL     1      26.857   7.683  47.517  1.00  0.00     0.093 A 
HETATM    4  C19 UNL     1      27.957   7.900  46.582  1.00  0.00    -0.076 A 
HETATM    5  C20 UNL     1      27.603   8.702  45.383  1.00  0.00     0.044 C 
HETATM    6  C21 UNL     1      29.021   7.297  47.080  1.00  0.00     0.034 A 
ENDROOT
BRANCH   1   7
HETATM    7  N3  UNL     1      29.662   5.989  49.006  1.00  0.00    -0.339 N 
HETATM    8  H7  UNL     1      29.287   5.253  49.639  1.00  0.00     0.167 HD
BRANCH   7   9
HETATM    9  C7  UNL     1      31.011   6.361  48.761  1.00  0.00     0.142 A 
HETATM   10  N2  UNL     1      31.427   7.538  49.255  1.00  0.00    -0.224 NA
HETATM   11  C6  UNL     1      32.683   7.990  49.085  1.00  0.00     0.236 A 
HETATM   12  N1  UNL     1      33.591   7.271  48.402  1.00  0.00    -0.241 NA
HETATM   13  C5  UNL     1      33.198   6.078  47.893  1.00  0.00     0.072 A 
HETATM   14  C4  UNL     1      34.113   5.329  47.191  1.00  0.00     0.035 A 
HETATM   15  C22 UNL     1      31.923   5.610  48.061  1.00  0.00     0.041 A 
HETATM   16  C3  UNL     1      33.719   4.115  46.670  1.00  0.00     0.039 A 
HETATM   17  C2  UNL     1      32.439   3.653  46.843  1.00  0.00     0.069 A 
HETATM   18  C23 UNL     1      31.532   4.416  47.549  1.00  0.00     0.054 A 
BRANCH  17  19
HETATM   19  O1  UNL     1      32.023   2.454  46.337  1.00  0.00    -0.356 OA
HETATM   20  C1  UNL     1      32.338   1.191  46.868  1.00  0.00     0.210 C 
ENDBRANCH  17  19
ENDBRANCH   7   9
ENDBRANCH   1   7
BRANCH   2  21
HETATM   21  N4  UNL     1      26.569   6.490  49.717  1.00  0.00    -0.310 N 
HETATM   22  C10 UNL     1      25.712   5.371  49.847  1.00  0.00     0.325 C 
HETATM   23  O2  UNL     1      25.592   4.553  48.929  1.00  0.00    -0.247 OA
HETATM   24  N5  UNL     1      24.927   5.067  50.989  1.00  0.00    -0.306 N 
HETATM   25  H9  UNL     1      24.982   5.730  51.819  1.00  0.00     0.171 HD
HETATM   26  H8  UNL     1      26.533   7.054  50.588  1.00  0.00     0.170 HD
BRANCH  24  27
HETATM   27  C11 UNL     1      24.111   3.878  50.939  1.00  0.00     0.069 A 
HETATM   28  C12 UNL     1      22.885   3.956  50.332  1.00  0.00     0.032 A 
HETATM   29  C13 UNL     1      22.091   2.822  50.277  1.00  0.00     0.002 A 
HETATM   30  C14 UNL     1      22.572   1.658  50.838  1.00  0.00     0.003 A 
HETATM   31  C15 UNL     1      23.803   1.575  51.448  1.00  0.00     0.039 A 
HETATM   32  C16 UNL     1      24.615   2.704  51.513  1.00  0.00     0.095 A 
BRANCH  32  33
HETATM   33  O3  UNL     1      25.876   2.764  52.097  1.00  0.00    -0.354 OA
HETATM   34  C17 UNL     1      26.825   1.784  51.696  1.00  0.00     0.210 C 
ENDBRANCH  32  33
ENDBRANCH  24  27
ENDBRANCH   2  21
TORSDOF 6
ENDMDL
