MODEL 1
REMARK VINA RESULT:      -7.5      0.000      0.000
REMARK  5 active torsions:
REMARK  status: ('A' for Active; 'I' for Inactive)
REMARK    1  A    between atoms: N1_1  and  C1_2 
REMARK    2  A    between atoms: N2_3  and  C2_4 
REMARK    3  A    between atoms: C2_4  and  N3_5 
REMARK    4  A    between atoms: N3_5  and  C3_6 
REMARK    5  A    between atoms: C13_19  and  N4_20 
ROOT
HETATM    1  C2  UNL     1      23.465   0.627  52.597  1.00  0.00     0.134 C 
HETATM    2  C9  UNL     1      23.186   1.531  51.618  1.00  0.00    -0.001 C 
HETATM    3  C10 UNL     1      21.956   1.361  50.849  1.00  0.00     0.214 C 
HETATM    4  O1  UNL     1      22.283   1.766  49.461  1.00  0.00    -0.346 OA
HETATM    5  C11 UNL     1      22.352   3.123  49.073  1.00  0.00     0.080 A 
HETATM    6  C12 UNL     1      22.797   3.787  47.994  1.00  0.00     0.067 A 
HETATM    7  C13 UNL     1      22.479   5.114  48.517  1.00  0.00     0.038 A 
HETATM    8  C14 UNL     1      22.036   4.423  49.599  1.00  0.00     0.011 A 
HETATM    9  C15 UNL     1      21.384   4.534  50.976  1.00  0.00     0.118 C 
HETATM   10  S1  UNL     1      22.615   4.181  52.246  1.00  0.00    -0.160 SA
HETATM   11  C16 UNL     1      23.848   2.837  51.607  1.00  0.00     0.114 C 
ENDROOT
BRANCH   1  12
HETATM   12  N2  UNL     1      22.904  -0.564  53.285  1.00  0.00    -0.227 NA
HETATM   13  C1  UNL     1      21.861  -0.289  54.070  1.00  0.00     0.202 C 
BRANCH  13  14
HETATM   14  N1  UNL     1      21.122  -1.213  54.813  1.00  0.00    -0.394 N 
HETATM   15  H1  UNL     1      20.927  -0.819  55.793  1.00  0.00     0.156 HD
HETATM   16  H2  UNL     1      20.781  -2.182  54.512  1.00  0.00     0.156 HD
ENDBRANCH  13  14
ENDBRANCH   1  12
BRANCH   1  17
HETATM   17  N3  UNL     1      24.887   0.464  52.839  1.00  0.00    -0.341 N 
HETATM   18  H4  UNL     1      24.942  -0.462  52.524  1.00  0.00     0.167 HD
BRANCH  17  19
HETATM   19  C3  UNL     1      26.256   0.371  53.092  1.00  0.00     0.035 A 
HETATM   20  C4  UNL     1      26.663  -0.871  52.814  1.00  0.00     0.032 A 
HETATM   21  C5  UNL     1      27.947  -1.380  52.994  1.00  0.00     0.046 A 
HETATM   22  C6  UNL     1      28.771  -0.442  53.491  1.00  0.00     0.138 A 
HETATM   23  F1  UNL     1      30.153  -0.651  53.682  1.00  0.00    -0.204 F 
HETATM   24  C7  UNL     1      28.506   0.853  53.825  1.00  0.00     0.074 A 
HETATM   25 CL1  UNL     1      29.504   2.095  54.514  1.00  0.00    -0.081 Cl
HETATM   26  C8  UNL     1      27.154   1.299  53.617  1.00  0.00     0.056 A 
ENDBRANCH  17  19
ENDBRANCH   1  17
BRANCH   7  27
HETATM   27  N4  UNL     1      22.393   6.484  48.514  1.00  0.00    -0.398 N 
HETATM   28  H11 UNL     1      21.396   6.651  48.389  1.00  0.00     0.156 HD
HETATM   29  H12 UNL     1      23.086   7.268  48.623  1.00  0.00     0.156 HD
ENDBRANCH   7  27
TORSDOF 5
ENDMDL
MODEL 2
REMARK VINA RESULT:      -7.5      1.309      1.671
REMARK  5 active torsions:
REMARK  status: ('A' for Active; 'I' for Inactive)
REMARK    1  A    between atoms: N1_1  and  C1_2 
REMARK    2  A    between atoms: N2_3  and  C2_4 
REMARK    3  A    between atoms: C2_4  and  N3_5 
REMARK    4  A    between atoms: N3_5  and  C3_6 
REMARK    5  A    between atoms: C13_19  and  N4_20 
ROOT
HETATM    1  C2  UNL     1      23.391   0.940  52.794  1.00  0.00     0.134 C 
HETATM    2  C9  UNL     1      23.068   1.470  51.582  1.00  0.00    -0.001 C 
HETATM    3  C10 UNL     1      21.722   1.249  51.065  1.00  0.00     0.214 C 
HETATM    4  O1  UNL     1      21.869   1.073  49.601  1.00  0.00    -0.346 OA
HETATM    5  C11 UNL     1      22.036   2.170  48.727  1.00  0.00     0.080 A 
HETATM    6  C12 UNL     1      22.381   2.322  47.438  1.00  0.00     0.067 A 
HETATM    7  C13 UNL     1      22.310   3.782  47.455  1.00  0.00     0.038 A 
HETATM    8  C14 UNL     1      21.965   3.606  48.757  1.00  0.00     0.011 A 
HETATM    9  C15 UNL     1      21.557   4.308  50.051  1.00  0.00     0.118 C 
HETATM   10  S1  UNL     1      22.924   4.226  51.226  1.00  0.00    -0.160 SA
HETATM   11  C16 UNL     1      23.871   2.555  51.013  1.00  0.00     0.114 C 
ENDROOT
BRANCH   1  12
HETATM   12  N2  UNL     1      22.808   0.184  53.933  1.00  0.00    -0.227 NA
HETATM   13  C1  UNL     1      22.396  -1.042  53.610  1.00  0.00     0.202 C 
BRANCH  13  14
HETATM   14  N1  UNL     1      21.836  -1.980  54.481  1.00  0.00    -0.394 N 
HETATM   15  H1  UNL     1      21.063  -2.529  53.976  1.00  0.00     0.156 HD
HETATM   16  H2  UNL     1      22.089  -2.165  55.504  1.00  0.00     0.156 HD
ENDBRANCH  13  14
ENDBRANCH   1  12
BRANCH   1  17
HETATM   17  N3  UNL     1      24.804   0.635  52.931  1.00  0.00    -0.341 N 
HETATM   18  H4  UNL     1      25.085   1.061  52.095  1.00  0.00     0.167 HD
BRANCH  17  19
HETATM   19  C3  UNL     1      26.148   0.315  53.122  1.00  0.00     0.035 A 
HETATM   20  C4  UNL     1      26.834   1.441  53.339  1.00  0.00     0.032 A 
HETATM   21  C5  UNL     1      28.211   1.550  53.512  1.00  0.00     0.046 A 
HETATM   22  C6  UNL     1      28.801   0.345  53.444  1.00  0.00     0.138 A 
HETATM   23  F1  UNL     1      30.178   0.144  53.682  1.00  0.00    -0.204 F 
HETATM   24  C7  UNL     1      28.243  -0.881  53.229  1.00  0.00     0.074 A 
HETATM   25 CL1  UNL     1      28.948  -2.460  53.080  1.00  0.00    -0.081 Cl
HETATM   26  C8  UNL     1      26.815  -0.907  53.051  1.00  0.00     0.056 A 
ENDBRANCH  17  19
ENDBRANCH   1  17
BRANCH   7  27
HETATM   27  N4  UNL     1      22.388   5.055  46.948  1.00  0.00    -0.398 N 
HETATM   28  H11 UNL     1      23.192   5.004  46.324  1.00  0.00     0.156 HD
HETATM   29  H12 UNL     1      21.823   5.934  47.069  1.00  0.00     0.156 HD
ENDBRANCH   7  27
TORSDOF 5
ENDMDL
MODEL 3
REMARK VINA RESULT:      -7.4      3.126      4.554
REMARK  5 active torsions:
REMARK  status: ('A' for Active; 'I' for Inactive)
REMARK    1  A    between atoms: N1_1  and  C1_2 
REMARK    2  A    between atoms: N2_3  and  C2_4 
REMARK    3  A    between atoms: C2_4  and  N3_5 
REMARK    4  A    between atoms: N3_5  and  C3_6 
REMARK    5  A    between atoms: C13_19  and  N4_20 
ROOT
HETATM    1  C2  UNL     1      23.077   3.296  52.225  1.00  0.00     0.134 C 
HETATM    2  C9  UNL     1      21.872   2.731  51.941  1.00  0.00    -0.001 C 
HETATM    3  C10 UNL     1      20.663   3.499  52.221  1.00  0.00     0.214 C 
HETATM    4  O1  UNL     1      19.656   2.519  52.693  1.00  0.00    -0.346 OA
HETATM    5  C11 UNL     1      18.937   1.694  51.799  1.00  0.00     0.080 A 
HETATM    6  C12 UNL     1      18.142   0.618  51.919  1.00  0.00     0.067 A 
HETATM    7  C13 UNL     1      17.908   0.467  50.485  1.00  0.00     0.038 A 
HETATM    8  C14 UNL     1      18.716   1.555  50.385  1.00  0.00     0.011 A 
HETATM    9  C15 UNL     1      19.357   2.556  49.425  1.00  0.00     0.118 C 
HETATM   10  S1  UNL     1      21.125   2.218  49.309  1.00  0.00    -0.160 SA
HETATM   11  C16 UNL     1      21.787   1.598  51.016  1.00  0.00     0.114 C 
ENDROOT
BRANCH   1  12
HETATM   12  N2  UNL     1      23.691   4.556  52.719  1.00  0.00    -0.227 NA
HETATM   13  C1  UNL     1      23.794   5.505  51.787  1.00  0.00     0.202 C 
BRANCH  13  14
HETATM   14  N1  UNL     1      24.305   6.792  51.973  1.00  0.00    -0.394 N 
HETATM   15  H1  UNL     1      24.404   7.285  51.024  1.00  0.00     0.156 HD
HETATM   16  H2  UNL     1      24.581   7.267  52.892  1.00  0.00     0.156 HD
ENDBRANCH  13  14
ENDBRANCH   1  12
BRANCH   1  17
HETATM   17  N3  UNL     1      24.108   2.324  52.538  1.00  0.00    -0.341 N 
HETATM   18  H4  UNL     1      23.509   1.553  52.608  1.00  0.00     0.167 HD
BRANCH  17  19
HETATM   19  C3  UNL     1      25.145   1.438  52.831  1.00  0.00     0.035 A 
HETATM   20  C4  UNL     1      26.075   2.082  53.544  1.00  0.00     0.032 A 
HETATM   21  C5  UNL     1      27.292   1.562  53.978  1.00  0.00     0.046 A 
HETATM   22  C6  UNL     1      27.433   0.283  53.592  1.00  0.00     0.138 A 
HETATM   23  F1  UNL     1      28.526  -0.524  53.975  1.00  0.00    -0.204 F 
HETATM   24  C7  UNL     1      26.585  -0.501  52.867  1.00  0.00     0.074 A 
HETATM   25 CL1  UNL     1      26.726  -2.134  52.295  1.00  0.00    -0.081 Cl
HETATM   26  C8  UNL     1      25.352   0.113  52.450  1.00  0.00     0.056 A 
ENDBRANCH  17  19
ENDBRANCH   1  17
BRANCH   7  27
HETATM   27  N4  UNL     1      17.391  -0.091  49.343  1.00  0.00    -0.398 N 
HETATM   28  H11 UNL     1      16.386  -0.052  49.503  1.00  0.00     0.156 HD
HETATM   29  H12 UNL     1      17.806  -0.477  48.456  1.00  0.00     0.156 HD
ENDBRANCH   7  27
TORSDOF 5
ENDMDL
MODEL 4
REMARK VINA RESULT:      -7.3      2.982      4.524
REMARK  5 active torsions:
REMARK  status: ('A' for Active; 'I' for Inactive)
REMARK    1  A    between atoms: N1_1  and  C1_2 
REMARK    2  A    between atoms: N2_3  and  C2_4 
REMARK    3  A    between atoms: C2_4  and  N3_5 
REMARK    4  A    between atoms: N3_5  and  C3_6 
REMARK    5  A    between atoms: C13_19  and  N4_20 
ROOT
HETATM    1  C2  UNL     1      24.589   3.391  50.488  1.00  0.00     0.134 C 
HETATM    2  C9  UNL     1      23.262   3.089  50.527  1.00  0.00    -0.001 C 
HETATM    3  C10 UNL     1      22.300   4.185  50.465  1.00  0.00     0.214 C 
HETATM    4  O1  UNL     1      21.183   3.799  51.359  1.00  0.00    -0.346 OA
HETATM    5  C11 UNL     1      20.183   2.885  50.957  1.00  0.00     0.080 A 
HETATM    6  C12 UNL     1      19.200   2.210  51.575  1.00  0.00     0.067 A 
HETATM    7  C13 UNL     1      18.737   1.522  50.372  1.00  0.00     0.038 A 
HETATM    8  C14 UNL     1      19.738   2.212  49.767  1.00  0.00     0.011 A 
HETATM    9  C15 UNL     1      20.437   2.501  48.439  1.00  0.00     0.118 C 
HETATM   10  S1  UNL     1      22.055   1.704  48.436  1.00  0.00    -0.160 SA
HETATM   11  C16 UNL     1      22.803   1.733  50.218  1.00  0.00     0.114 C 
ENDROOT
BRANCH   1  12
HETATM   12  N2  UNL     1      25.525   4.535  50.340  1.00  0.00    -0.227 NA
HETATM   13  C1  UNL     1      26.519   4.307  49.480  1.00  0.00     0.202 C 
BRANCH  13  14
HETATM   14  N1  UNL     1      27.525   5.210  49.125  1.00  0.00    -0.394 N 
HETATM   15  H1  UNL     1      27.376   5.542  48.115  1.00  0.00     0.156 HD
HETATM   16  H2  UNL     1      28.347   5.551  49.720  1.00  0.00     0.156 HD
ENDBRANCH  13  14
ENDBRANCH   1  12
BRANCH   1  17
HETATM   17  N3  UNL     1      25.419   2.419  51.176  1.00  0.00    -0.341 N 
HETATM   18  H4  UNL     1      25.178   1.656  50.611  1.00  0.00     0.167 HD
BRANCH  17  19
HETATM   19  C3  UNL     1      26.240   1.534  51.876  1.00  0.00     0.035 A 
HETATM   20  C4  UNL     1      27.194   2.232  52.500  1.00  0.00     0.032 A 
HETATM   21  C5  UNL     1      28.243   1.709  53.251  1.00  0.00     0.046 A 
HETATM   22  C6  UNL     1      28.185   0.366  53.290  1.00  0.00     0.138 A 
HETATM   23  F1  UNL     1      29.065  -0.423  54.060  1.00  0.00    -0.204 F 
HETATM   24  C7  UNL     1      27.285  -0.478  52.709  1.00  0.00     0.074 A 
HETATM   25 CL1  UNL     1      27.180  -2.210  52.678  1.00  0.00    -0.081 Cl
HETATM   26  C8  UNL     1      26.236   0.142  51.943  1.00  0.00     0.056 A 
ENDBRANCH  17  19
ENDBRANCH   1  17
BRANCH   7  27
HETATM   27  N4  UNL     1      17.954   0.680  49.622  1.00  0.00    -0.398 N 
HETATM   28  H11 UNL     1      17.573   0.041  50.318  1.00  0.00     0.156 HD
HETATM   29  H12 UNL     1      17.710   0.613  48.601  1.00  0.00     0.156 HD
ENDBRANCH   7  27
TORSDOF 5
ENDMDL
MODEL 5
REMARK VINA RESULT:      -7.1      8.809     11.032
REMARK  5 active torsions:
REMARK  status: ('A' for Active; 'I' for Inactive)
REMARK    1  A    between atoms: N1_1  and  C1_2 
REMARK    2  A    between atoms: N2_3  and  C2_4 
REMARK    3  A    between atoms: C2_4  and  N3_5 
REMARK    4  A    between atoms: N3_5  and  C3_6 
REMARK    5  A    between atoms: C13_19  and  N4_20 
ROOT
HETATM    1  C2  UNL     1      30.291   7.749  47.999  1.00  0.00     0.134 C 
HETATM    2  C9  UNL     1      31.212   7.025  47.305  1.00  0.00    -0.001 C 
HETATM    3  C10 UNL     1      32.143   7.738  46.437  1.00  0.00     0.214 C 
HETATM    4  O1  UNL     1      32.342   6.871  45.252  1.00  0.00    -0.346 OA
HETATM    5  C11 UNL     1      33.206   5.753  45.277  1.00  0.00     0.080 A 
HETATM    6  C12 UNL     1      33.437   4.705  44.471  1.00  0.00     0.067 A 
HETATM    7  C13 UNL     1      34.451   4.099  45.331  1.00  0.00     0.038 A 
HETATM    8  C14 UNL     1      34.200   5.166  46.134  1.00  0.00     0.011 A 
HETATM    9  C15 UNL     1      34.578   5.871  47.435  1.00  0.00     0.118 C 
HETATM   10  S1  UNL     1      33.244   5.662  48.631  1.00  0.00    -0.160 SA
HETATM   11  C16 UNL     1      31.541   5.658  47.718  1.00  0.00     0.114 C 
ENDROOT
BRANCH   1  12
HETATM   12  N2  UNL     1      29.866   9.146  48.273  1.00  0.00    -0.227 NA
HETATM   13  C1  UNL     1      30.595   9.756  49.208  1.00  0.00     0.202 C 
BRANCH  13  14
HETATM   14  N1  UNL     1      30.439  11.073  49.647  1.00  0.00    -0.394 N 
HETATM   15  H1  UNL     1      31.401  11.543  49.736  1.00  0.00     0.156 HD
HETATM   16  H2  UNL     1      29.531  11.589  49.881  1.00  0.00     0.156 HD
ENDBRANCH  13  14
ENDBRANCH   1  12
BRANCH   1  17
HETATM   17  N3  UNL     1      29.073   7.010  48.282  1.00  0.00    -0.341 N 
HETATM   18  H4  UNL     1      28.893   7.432  49.147  1.00  0.00     0.167 HD
BRANCH  17  19
HETATM   19  C3  UNL     1      27.910   6.271  48.494  1.00  0.00     0.035 A 
HETATM   20  C4  UNL     1      26.853   7.074  48.340  1.00  0.00     0.032 A 
HETATM   21  C5  UNL     1      25.517   6.729  48.529  1.00  0.00     0.046 A 
HETATM   22  C6  UNL     1      25.400   5.440  48.890  1.00  0.00     0.138 A 
HETATM   23  F1  UNL     1      24.156   4.794  49.054  1.00  0.00    -0.204 F 
HETATM   24  C7  UNL     1      26.373   4.505  49.089  1.00  0.00     0.074 A 
HETATM   25 CL1  UNL     1      26.295   2.849  49.600  1.00  0.00    -0.081 Cl
HETATM   26  C8  UNL     1      27.727   4.944  48.881  1.00  0.00     0.056 A 
ENDBRANCH  17  19
ENDBRANCH   1  17
BRANCH   7  27
HETATM   27  N4  UNL     1      35.388   3.173  45.718  1.00  0.00    -0.398 N 
HETATM   28  H11 UNL     1      34.892   2.624  46.419  1.00  0.00     0.156 HD
HETATM   29  H12 UNL     1      36.379   2.963  45.436  1.00  0.00     0.156 HD
ENDBRANCH   7  27
TORSDOF 5
ENDMDL
MODEL 6
REMARK VINA RESULT:      -7.0      3.366      4.445
REMARK  5 active torsions:
REMARK  status: ('A' for Active; 'I' for Inactive)
REMARK    1  A    between atoms: N1_1  and  C1_2 
REMARK    2  A    between atoms: N2_3  and  C2_4 
REMARK    3  A    between atoms: C2_4  and  N3_5 
REMARK    4  A    between atoms: N3_5  and  C3_6 
REMARK    5  A    between atoms: C13_19  and  N4_20 
ROOT
HETATM    1  C2  UNL     1      21.757   2.177  50.321  1.00  0.00     0.134 C 
HETATM    2  C9  UNL     1      22.650   3.187  50.132  1.00  0.00    -0.001 C 
HETATM    3  C10 UNL     1      22.832   3.708  48.781  1.00  0.00     0.214 C 
HETATM    4  O1  UNL     1      24.274   4.027  48.657  1.00  0.00    -0.346 OA
HETATM    5  C11 UNL     1      24.830   5.208  49.198  1.00  0.00     0.080 A 
HETATM    6  C12 UNL     1      26.073   5.666  49.418  1.00  0.00     0.067 A 
HETATM    7  C13 UNL     1      25.644   6.926  50.019  1.00  0.00     0.038 A 
HETATM    8  C14 UNL     1      24.394   6.443  49.791  1.00  0.00     0.011 A 
HETATM    9  C15 UNL     1      22.899   6.732  49.904  1.00  0.00     0.118 C 
HETATM   10  S1  UNL     1      22.195   5.711  51.214  1.00  0.00    -0.160 SA
HETATM   11  C16 UNL     1      23.095   4.001  51.266  1.00  0.00     0.114 C 
ENDROOT
BRANCH   1  12
HETATM   12  N2  UNL     1      20.753   1.353  49.600  1.00  0.00    -0.227 NA
HETATM   13  C1  UNL     1      19.506   1.513  50.045  1.00  0.00     0.202 C 
BRANCH  13  14
HETATM   14  N1  UNL     1      18.363   0.889  49.539  1.00  0.00    -0.394 N 
HETATM   15  H1  UNL     1      17.490   1.280  50.026  1.00  0.00     0.156 HD
HETATM   16  H2  UNL     1      18.303   0.128  48.789  1.00  0.00     0.156 HD
ENDBRANCH  13  14
ENDBRANCH   1  12
BRANCH   1  17
HETATM   17  N3  UNL     1      22.087   1.321  51.447  1.00  0.00    -0.341 N 
HETATM   18  H4  UNL     1      21.400   1.673  52.050  1.00  0.00     0.167 HD
BRANCH  17  19
HETATM   19  C3  UNL     1      22.450   0.469  52.490  1.00  0.00     0.035 A 
HETATM   20  C4  UNL     1      21.351  -0.128  52.961  1.00  0.00     0.032 A 
HETATM   21  C5  UNL     1      21.286  -1.003  54.043  1.00  0.00     0.046 A 
HETATM   22  C6  UNL     1      22.503  -1.197  54.579  1.00  0.00     0.138 A 
HETATM   23  F1  UNL     1      22.749  -2.111  55.626  1.00  0.00    -0.204 F 
HETATM   24  C7  UNL     1      23.704  -0.663  54.216  1.00  0.00     0.074 A 
HETATM   25 CL1  UNL     1      25.293  -0.830  54.891  1.00  0.00    -0.081 Cl
HETATM   26  C8  UNL     1      23.685   0.238  53.094  1.00  0.00     0.056 A 
ENDBRANCH  17  19
ENDBRANCH   1  17
BRANCH   7  27
HETATM   27  N4  UNL     1      25.789   8.159  50.606  1.00  0.00    -0.398 N 
HETATM   28  H11 UNL     1      26.033   8.759  49.820  1.00  0.00     0.156 HD
HETATM   29  H12 UNL     1      25.685   8.528  51.586  1.00  0.00     0.156 HD
ENDBRANCH   7  27
TORSDOF 5
ENDMDL
MODEL 7
REMARK VINA RESULT:      -6.6      3.134      4.707
REMARK  5 active torsions:
REMARK  status: ('A' for Active; 'I' for Inactive)
REMARK    1  A    between atoms: N1_1  and  C1_2 
REMARK    2  A    between atoms: N2_3  and  C2_4 
REMARK    3  A    between atoms: C2_4  and  N3_5 
REMARK    4  A    between atoms: N3_5  and  C3_6 
REMARK    5  A    between atoms: C13_19  and  N4_20 
ROOT
HETATM    1  C2  UNL     1      24.545   3.995  49.948  1.00  0.00     0.134 C 
HETATM    2  C9  UNL     1      23.213   3.964  49.668  1.00  0.00    -0.001 C 
HETATM    3  C10 UNL     1      22.531   5.227  49.405  1.00  0.00     0.214 C 
HETATM    4  O1  UNL     1      21.182   5.096  50.004  1.00  0.00    -0.346 OA
HETATM    5  C11 UNL     1      20.142   4.388  49.361  1.00  0.00     0.080 A 
HETATM    6  C12 UNL     1      18.927   3.940  49.717  1.00  0.00     0.067 A 
HETATM    7  C13 UNL     1      18.630   3.324  48.426  1.00  0.00     0.038 A 
HETATM    8  C14 UNL     1      19.863   3.785  48.086  1.00  0.00     0.011 A 
HETATM    9  C15 UNL     1      20.895   3.892  46.965  1.00  0.00     0.118 C 
HETATM   10  S1  UNL     1      22.277   2.789  47.325  1.00  0.00    -0.160 SA
HETATM   11  C16 UNL     1      22.578   2.718  49.233  1.00  0.00     0.114 C 
ENDROOT
BRANCH   1  12
HETATM   12  N2  UNL     1      25.699   4.925  50.046  1.00  0.00    -0.227 NA
HETATM   13  C1  UNL     1      26.709   4.618  49.230  1.00  0.00     0.202 C 
BRANCH  13  14
HETATM   14  N1  UNL     1      27.903   5.329  49.091  1.00  0.00    -0.394 N 
HETATM   15  H1  UNL     1      27.911   5.845  48.149  1.00  0.00     0.156 HD
HETATM   16  H2  UNL     1      28.723   5.385  49.777  1.00  0.00     0.156 HD
ENDBRANCH  13  14
ENDBRANCH   1  12
BRANCH   1  17
HETATM   17  N3  UNL     1      24.981   2.896  50.791  1.00  0.00    -0.341 N 
HETATM   18  H4  UNL     1      25.933   2.966  50.572  1.00  0.00     0.167 HD
BRANCH  17  19
HETATM   19  C3  UNL     1      25.336   1.833  51.622  1.00  0.00     0.035 A 
HETATM   20  C4  UNL     1      24.264   1.459  52.327  1.00  0.00     0.032 A 
HETATM   21  C5  UNL     1      24.223   0.474  53.310  1.00  0.00     0.046 A 
HETATM   22  C6  UNL     1      25.431  -0.091  53.475  1.00  0.00     0.138 A 
HETATM   23  F1  UNL     1      25.662  -1.185  54.336  1.00  0.00    -0.204 F 
HETATM   24  C7  UNL     1      26.608   0.180  52.840  1.00  0.00     0.074 A 
HETATM   25 CL1  UNL     1      28.203  -0.472  53.038  1.00  0.00    -0.081 Cl
HETATM   26  C8  UNL     1      26.567   1.218  51.843  1.00  0.00     0.056 A 
ENDBRANCH  17  19
ENDBRANCH   1  17
BRANCH   7  27
HETATM   27  N4  UNL     1      17.893   2.634  47.496  1.00  0.00    -0.398 N 
HETATM   28  H11 UNL     1      18.520   1.882  47.218  1.00  0.00     0.156 HD
HETATM   29  H12 UNL     1      16.923   2.735  47.101  1.00  0.00     0.156 HD
ENDBRANCH   7  27
TORSDOF 5
ENDMDL
MODEL 8
REMARK VINA RESULT:      -6.4      3.786      4.860
REMARK  5 active torsions:
REMARK  status: ('A' for Active; 'I' for Inactive)
REMARK    1  A    between atoms: N1_1  and  C1_2 
REMARK    2  A    between atoms: N2_3  and  C2_4 
REMARK    3  A    between atoms: C2_4  and  N3_5 
REMARK    4  A    between atoms: N3_5  and  C3_6 
REMARK    5  A    between atoms: C13_19  and  N4_20 
ROOT
HETATM    1  C2  UNL     1      22.946   3.885  50.022  1.00  0.00     0.134 C 
HETATM    2  C9  UNL     1      23.873   4.864  49.840  1.00  0.00    -0.001 C 
HETATM    3  C10 UNL     1      23.902   5.563  48.559  1.00  0.00     0.214 C 
HETATM    4  O1  UNL     1      25.331   5.822  48.266  1.00  0.00    -0.346 OA
HETATM    5  C11 UNL     1      26.041   6.883  48.873  1.00  0.00     0.080 A 
HETATM    6  C12 UNL     1      27.332   7.240  48.965  1.00  0.00     0.067 A 
HETATM    7  C13 UNL     1      27.082   8.422  49.788  1.00  0.00     0.038 A 
HETATM    8  C14 UNL     1      25.782   8.041  49.684  1.00  0.00     0.011 A 
HETATM    9  C15 UNL     1      24.342   8.388  50.056  1.00  0.00     0.118 C 
HETATM   10  S1  UNL     1      23.756   7.227  51.307  1.00  0.00    -0.160 SA
HETATM   11  C16 UNL     1      24.530   5.483  50.994  1.00  0.00     0.114 C 
ENDROOT
BRANCH   1  12
HETATM   12  N2  UNL     1      21.794   3.226  49.353  1.00  0.00    -0.227 NA
HETATM   13  C1  UNL     1      21.990   1.931  49.098  1.00  0.00     0.202 C 
BRANCH  13  14
HETATM   14  N1  UNL     1      21.073   1.059  48.506  1.00  0.00    -0.394 N 
HETATM   15  H1  UNL     1      21.303   0.047  48.781  1.00  0.00     0.156 HD
HETATM   16  H2  UNL     1      20.253   1.300  47.862  1.00  0.00     0.156 HD
ENDBRANCH  13  14
ENDBRANCH   1  12
BRANCH   1  17
HETATM   17  N3  UNL     1      23.366   2.861  50.960  1.00  0.00    -0.341 N 
HETATM   18  H4  UNL     1      23.281   3.413  51.764  1.00  0.00     0.167 HD
BRANCH  17  19
HETATM   19  C3  UNL     1      23.776   1.834  51.811  1.00  0.00     0.035 A 
HETATM   20  C4  UNL     1      25.080   1.610  51.622  1.00  0.00     0.032 A 
HETATM   21  C5  UNL     1      25.847   0.623  52.236  1.00  0.00     0.046 A 
HETATM   22  C6  UNL     1      25.102  -0.107  53.084  1.00  0.00     0.138 A 
HETATM   23  F1  UNL     1      25.640  -1.112  53.915  1.00  0.00    -0.204 F 
HETATM   24  C7  UNL     1      23.775  -0.003  53.379  1.00  0.00     0.074 A 
HETATM   25 CL1  UNL     1      22.747  -0.938  54.419  1.00  0.00    -0.081 Cl
HETATM   26  C8  UNL     1      23.051   1.037  52.696  1.00  0.00     0.056 A 
ENDBRANCH  17  19
ENDBRANCH   1  17
BRANCH   7  27
HETATM   27  N4  UNL     1      27.396   9.548  50.507  1.00  0.00    -0.398 N 
HETATM   28  H11 UNL     1      28.283   9.841  50.099  1.00  0.00     0.156 HD
HETATM   29  H12 UNL     1      26.928  10.085  51.281  1.00  0.00     0.156 HD
ENDBRANCH   7  27
TORSDOF 5
ENDMDL
MODEL 9
REMARK VINA RESULT:      -6.4      7.666      9.612
REMARK  5 active torsions:
REMARK  status: ('A' for Active; 'I' for Inactive)
REMARK    1  A    between atoms: N1_1  and  C1_2 
REMARK    2  A    between atoms: N2_3  and  C2_4 
REMARK    3  A    between atoms: C2_4  and  N3_5 
REMARK    4  A    between atoms: N3_5  and  C3_6 
REMARK    5  A    between atoms: C13_19  and  N4_20 
ROOT
HETATM    1  C2  UNL     1      29.705   9.159  48.991  1.00  0.00     0.134 C 
HETATM    2  C9  UNL     1      28.480   8.572  49.083  1.00  0.00    -0.001 C 
HETATM    3  C10 UNL     1      27.434   9.265  49.828  1.00  0.00     0.214 C 
HETATM    4  O1  UNL     1      26.658   8.210  50.522  1.00  0.00    -0.346 OA
HETATM    5  C11 UNL     1      25.684   7.434  49.854  1.00  0.00     0.080 A 
HETATM    6  C12 UNL     1      24.988   6.322  50.138  1.00  0.00     0.067 A 
HETATM    7  C13 UNL     1      24.278   6.282  48.862  1.00  0.00     0.038 A 
HETATM    8  C14 UNL     1      24.993   7.405  48.593  1.00  0.00     0.011 A 
HETATM    9  C15 UNL     1      25.257   8.508  47.570  1.00  0.00     0.118 C 
HETATM   10  S1  UNL     1      26.881   8.251  46.828  1.00  0.00    -0.160 SA
HETATM   11  C16 UNL     1      28.093   7.518  48.143  1.00  0.00     0.114 C 
ENDROOT
BRANCH   1  12
HETATM   12  N2  UNL     1      30.441  10.396  49.360  1.00  0.00    -0.227 NA
HETATM   13  C1  UNL     1      30.888  11.088  48.311  1.00  0.00     0.202 C 
BRANCH  13  14
HETATM   14  N1  UNL     1      31.585  12.298  48.358  1.00  0.00    -0.394 N 
HETATM   15  H1  UNL     1      30.978  13.049  48.827  1.00  0.00     0.156 HD
HETATM   16  H2  UNL     1      32.569  12.509  47.993  1.00  0.00     0.156 HD
ENDBRANCH  13  14
ENDBRANCH   1  12
BRANCH   1  17
HETATM   17  N3  UNL     1      30.790   8.205  48.842  1.00  0.00    -0.341 N 
HETATM   18  H4  UNL     1      31.483   8.772  49.239  1.00  0.00     0.167 HD
BRANCH  17  19
HETATM   19  C3  UNL     1      31.787   7.245  48.674  1.00  0.00     0.035 A 
HETATM   20  C4  UNL     1      32.980   7.845  48.745  1.00  0.00     0.032 A 
HETATM   21  C5  UNL     1      34.221   7.240  48.564  1.00  0.00     0.046 A 
HETATM   22  C6  UNL     1      34.085   5.928  48.309  1.00  0.00     0.138 A 
HETATM   23  F1  UNL     1      35.180   5.048  48.180  1.00  0.00    -0.204 F 
HETATM   24  C7  UNL     1      32.949   5.181  48.203  1.00  0.00     0.074 A 
HETATM   25 CL1  UNL     1      32.700   3.504  47.829  1.00  0.00    -0.081 Cl
HETATM   26  C8  UNL     1      31.707   5.882  48.395  1.00  0.00     0.056 A 
ENDBRANCH  17  19
ENDBRANCH   1  17
BRANCH   7  27
HETATM   27  N4  UNL     1      23.405   5.801  47.918  1.00  0.00    -0.398 N 
HETATM   28  H11 UNL     1      23.385   6.546  47.223  1.00  0.00     0.156 HD
HETATM   29  H12 UNL     1      22.853   4.912  47.807  1.00  0.00     0.156 HD
ENDBRANCH   7  27
TORSDOF 5
ENDMDL
