MODEL 1
REMARK VINA RESULT:      -7.9      0.000      0.000
REMARK  4 active torsions:
REMARK  status: ('A' for Active; 'I' for Inactive)
REMARK       I    between atoms: C3_3  and  N1_5 
REMARK    1  A    between atoms: N1_5  and  C4_6 
REMARK    2  A    between atoms: C7_9  and  N2_10 
REMARK    3  A    between atoms: C8_11  and  C9_12 
REMARK    4  A    between atoms: C10_13  and  C11_14 
ROOT
HETATM    1  C1  UNL     1      30.211  -0.495  53.521  1.00  0.00     0.022 C 
HETATM    2  C2  UNL     1      29.032  -0.797  53.542  1.00  0.00    -0.016 C 
HETATM    3  C3  UNL     1      27.634  -1.130  53.567  1.00  0.00     0.301 C 
HETATM    4  O1  UNL     1      27.160  -2.079  52.879  1.00  0.00    -0.258 OA
HETATM    5  N1  UNL     1      26.782  -0.346  54.401  1.00  0.00    -0.301 N 
HETATM    6  H2  UNL     1      27.193   0.428  54.956  1.00  0.00     0.171 HD
ENDROOT
BRANCH   5   7
HETATM    7  C4  UNL     1      25.381  -0.583  54.506  1.00  0.00     0.131 A 
HETATM    8  C5  UNL     1      24.496  -0.088  53.569  1.00  0.00     0.068 A 
HETATM    9  C6  UNL     1      23.148  -0.326  53.683  1.00  0.00     0.046 A 
HETATM   10  C7  UNL     1      22.280   0.165  52.754  1.00  0.00     0.163 A 
HETATM   11  C13 UNL     1      22.672  -1.063  54.739  1.00  0.00     0.089 A 
HETATM   12  N3  UNL     1      20.958  -0.065  52.862  1.00  0.00    -0.222 NA
HETATM   13  C12 UNL     1      20.483  -0.795  53.910  1.00  0.00     0.236 A 
HETATM   14  N4  UNL     1      21.333  -1.286  54.833  1.00  0.00    -0.240 NA
HETATM   15  C14 UNL     1      23.555  -1.556  55.675  1.00  0.00     0.151 A 
HETATM   16  N5  UNL     1      24.867  -1.299  55.523  1.00  0.00    -0.241 NA
BRANCH  10  17
HETATM   17  N2  UNL     1      22.708   0.944  51.623  1.00  0.00    -0.241 NA
HETATM   18  C8  UNL     1      22.256   2.153  51.518  1.00  0.00     0.119 C 
BRANCH  18  19
HETATM   19  C9  UNL     1      22.685   2.949  50.376  1.00  0.00     0.016 C 
HETATM   20  C10 UNL     1      23.931   3.329  50.245  1.00  0.00    -0.014 C 
BRANCH  20  21
HETATM   21  C11 UNL     1      24.586   4.132  49.182  1.00  0.00     0.112 C 
HETATM   22 BR1  UNL     1      26.519   4.112  49.384  1.00  0.00    -0.092 Br
ENDBRANCH  20  21
ENDBRANCH  18  19
ENDBRANCH  10  17
ENDBRANCH   5   7
TORSDOF 4
ENDMDL
MODEL 2
REMARK VINA RESULT:      -7.3      2.012      2.071
REMARK  4 active torsions:
REMARK  status: ('A' for Active; 'I' for Inactive)
REMARK       I    between atoms: C3_3  and  N1_5 
REMARK    1  A    between atoms: N1_5  and  C4_6 
REMARK    2  A    between atoms: C7_9  and  N2_10 
REMARK    3  A    between atoms: C8_11  and  C9_12 
REMARK    4  A    between atoms: C10_13  and  C11_14 
ROOT
HETATM    1  C1  UNL     1      30.255  -0.330  53.656  1.00  0.00     0.022 C 
HETATM    2  C2  UNL     1      29.084  -0.128  53.922  1.00  0.00    -0.016 C 
HETATM    3  C3  UNL     1      27.699   0.087  54.240  1.00  0.00     0.301 C 
HETATM    4  O1  UNL     1      27.308   1.116  54.861  1.00  0.00    -0.258 OA
HETATM    5  N1  UNL     1      26.764  -0.910  53.830  1.00  0.00    -0.301 N 
HETATM    6  H2  UNL     1      27.108  -1.746  53.322  1.00  0.00     0.171 HD
ENDROOT
BRANCH   5   7
HETATM    7  C4  UNL     1      25.367  -0.805  54.091  1.00  0.00     0.131 A 
HETATM    8  C5  UNL     1      24.529  -0.104  53.247  1.00  0.00     0.068 A 
HETATM    9  C6  UNL     1      23.184  -0.012  53.512  1.00  0.00     0.046 A 
HETATM   10  C7  UNL     1      22.361   0.681  52.675  1.00  0.00     0.163 A 
HETATM   11  C13 UNL     1      22.665  -0.622  54.628  1.00  0.00     0.089 A 
HETATM   12  N3  UNL     1      21.043   0.774  52.931  1.00  0.00    -0.222 NA
HETATM   13  C12 UNL     1      20.526   0.170  54.038  1.00  0.00     0.236 A 
HETATM   14  N4  UNL     1      21.331  -0.518  54.872  1.00  0.00    -0.240 NA
HETATM   15  C14 UNL     1      23.502  -1.320  55.471  1.00  0.00     0.151 A 
HETATM   16  N5  UNL     1      24.812  -1.384  55.171  1.00  0.00    -0.241 NA
BRANCH  10  17
HETATM   17  N2  UNL     1      22.836   1.343  51.490  1.00  0.00    -0.241 NA
HETATM   18  C8  UNL     1      22.011   1.473  50.501  1.00  0.00     0.119 C 
BRANCH  18  19
HETATM   19  C9  UNL     1      22.483   2.143  49.296  1.00  0.00     0.016 C 
HETATM   20  C10 UNL     1      21.739   2.208  48.221  1.00  0.00    -0.014 C 
BRANCH  20  21
HETATM   21  C11 UNL     1      22.009   2.828  46.900  1.00  0.00     0.112 C 
HETATM   22 BR1  UNL     1      20.715   4.224  46.507  1.00  0.00    -0.092 Br
ENDBRANCH  20  21
ENDBRANCH  18  19
ENDBRANCH  10  17
ENDBRANCH   5   7
TORSDOF 4
ENDMDL
MODEL 3
REMARK VINA RESULT:      -7.0      2.461      5.316
REMARK  4 active torsions:
REMARK  status: ('A' for Active; 'I' for Inactive)
REMARK       I    between atoms: C3_3  and  N1_5 
REMARK    1  A    between atoms: N1_5  and  C4_6 
REMARK    2  A    between atoms: C7_9  and  N2_10 
REMARK    3  A    between atoms: C8_11  and  C9_12 
REMARK    4  A    between atoms: C10_13  and  C11_14 
ROOT
HETATM    1  C1  UNL     1      17.779  -0.891  52.642  1.00  0.00     0.022 C 
HETATM    2  C2  UNL     1      18.874  -0.594  53.082  1.00  0.00    -0.016 C 
HETATM    3  C3  UNL     1      20.178  -0.256  53.584  1.00  0.00     0.301 C 
HETATM    4  O1  UNL     1      20.460   0.910  53.980  1.00  0.00    -0.258 OA
HETATM    5  N1  UNL     1      21.160  -1.291  53.624  1.00  0.00    -0.301 N 
HETATM    6  H2  UNL     1      20.905  -2.241  53.294  1.00  0.00     0.171 HD
ENDROOT
BRANCH   5   7
HETATM    7  C4  UNL     1      22.484  -1.073  54.102  1.00  0.00     0.131 A 
HETATM    8  C5  UNL     1      23.413  -0.379  53.353  1.00  0.00     0.068 A 
HETATM    9  C6  UNL     1      24.687  -0.177  53.826  1.00  0.00     0.046 A 
HETATM   10  C7  UNL     1      25.600   0.509  53.082  1.00  0.00     0.163 A 
HETATM   11  C13 UNL     1      25.043  -0.670  55.058  1.00  0.00     0.089 A 
HETATM   12  N3  UNL     1      26.849   0.709  53.543  1.00  0.00    -0.222 NA
HETATM   13  C12 UNL     1      27.204   0.221  54.765  1.00  0.00     0.236 A 
HETATM   14  N4  UNL     1      26.309  -0.458  55.508  1.00  0.00    -0.240 NA
HETATM   15  C14 UNL     1      24.115  -1.363  55.805  1.00  0.00     0.151 A 
HETATM   16  N5  UNL     1      22.880  -1.536  55.301  1.00  0.00    -0.241 NA
BRANCH  10  17
HETATM   17  N2  UNL     1      25.296   1.052  51.786  1.00  0.00    -0.241 NA
HETATM   18  C8  UNL     1      25.237   2.341  51.671  1.00  0.00     0.119 C 
BRANCH  18  19
HETATM   19  C9  UNL     1      24.930   2.899  50.361  1.00  0.00     0.016 C 
HETATM   20  C10 UNL     1      23.694   3.124  49.993  1.00  0.00    -0.014 C 
BRANCH  20  21
HETATM   21  C11 UNL     1      23.152   3.678  48.728  1.00  0.00     0.112 C 
HETATM   22 BR1  UNL     1      22.305   2.289  47.665  1.00  0.00    -0.092 Br
ENDBRANCH  20  21
ENDBRANCH  18  19
ENDBRANCH  10  17
ENDBRANCH   5   7
TORSDOF 4
ENDMDL
MODEL 4
REMARK VINA RESULT:      -7.0      3.044      5.860
REMARK  4 active torsions:
REMARK  status: ('A' for Active; 'I' for Inactive)
REMARK       I    between atoms: C3_3  and  N1_5 
REMARK    1  A    between atoms: N1_5  and  C4_6 
REMARK    2  A    between atoms: C7_9  and  N2_10 
REMARK    3  A    between atoms: C8_11  and  C9_12 
REMARK    4  A    between atoms: C10_13  and  C11_14 
ROOT
HETATM    1  C1  UNL     1      24.527   7.187  50.545  1.00  0.00     0.022 C 
HETATM    2  C2  UNL     1      24.026   6.296  51.205  1.00  0.00    -0.016 C 
HETATM    3  C3  UNL     1      23.441   5.227  51.968  1.00  0.00     0.301 C 
HETATM    4  O1  UNL     1      23.502   5.196  53.230  1.00  0.00    -0.258 OA
HETATM    5  N1  UNL     1      22.781   4.186  51.250  1.00  0.00    -0.301 N 
HETATM    6  H2  UNL     1      22.743   4.233  50.214  1.00  0.00     0.171 HD
ENDROOT
BRANCH   5   7
HETATM    7  C4  UNL     1      22.166   3.077  51.899  1.00  0.00     0.131 A 
HETATM    8  C5  UNL     1      22.907   1.996  52.331  1.00  0.00     0.068 A 
HETATM    9  C6  UNL     1      22.300   0.934  52.956  1.00  0.00     0.046 A 
HETATM   10  C7  UNL     1      23.038  -0.131  53.382  1.00  0.00     0.163 A 
HETATM   11  C13 UNL     1      20.941   0.945  53.154  1.00  0.00     0.089 A 
HETATM   12  N3  UNL     1      22.446  -1.174  53.994  1.00  0.00    -0.222 NA
HETATM   13  C12 UNL     1      21.098  -1.165  54.191  1.00  0.00     0.236 A 
HETATM   14  N4  UNL     1      20.360  -0.117  53.775  1.00  0.00    -0.240 NA
HETATM   15  C14 UNL     1      20.201   2.024  52.722  1.00  0.00     0.151 A 
HETATM   16  N5  UNL     1      20.838   3.042  52.115  1.00  0.00    -0.241 NA
BRANCH  10  17
HETATM   17  N2  UNL     1      24.463  -0.209  53.207  1.00  0.00    -0.241 NA
HETATM   18  C8  UNL     1      25.184  -0.461  54.253  1.00  0.00     0.119 C 
BRANCH  18  19
HETATM   19  C9  UNL     1      26.629  -0.542  54.086  1.00  0.00     0.016 C 
HETATM   20  C10 UNL     1      27.426   0.341  54.634  1.00  0.00    -0.014 C 
BRANCH  20  21
HETATM   21  C11 UNL     1      28.904   0.457  54.599  1.00  0.00     0.112 C 
HETATM   22 BR1  UNL     1      29.690  -0.959  53.525  1.00  0.00    -0.092 Br
ENDBRANCH  20  21
ENDBRANCH  18  19
ENDBRANCH  10  17
ENDBRANCH   5   7
TORSDOF 4
ENDMDL
MODEL 5
REMARK VINA RESULT:      -6.8      2.427      5.304
REMARK  4 active torsions:
REMARK  status: ('A' for Active; 'I' for Inactive)
REMARK       I    between atoms: C3_3  and  N1_5 
REMARK    1  A    between atoms: N1_5  and  C4_6 
REMARK    2  A    between atoms: C7_9  and  N2_10 
REMARK    3  A    between atoms: C8_11  and  C9_12 
REMARK    4  A    between atoms: C10_13  and  C11_14 
ROOT
HETATM    1  C1  UNL     1      19.408  -1.692  53.772  1.00  0.00     0.022 C 
HETATM    2  C2  UNL     1      20.559  -1.448  54.082  1.00  0.00    -0.016 C 
HETATM    3  C3  UNL     1      21.917  -1.139  54.437  1.00  0.00     0.301 C 
HETATM    4  O1  UNL     1      22.389  -1.413  55.576  1.00  0.00    -0.258 OA
HETATM    5  N1  UNL     1      22.730  -0.503  53.451  1.00  0.00    -0.301 N 
HETATM    6  H2  UNL     1      22.320  -0.288  52.522  1.00  0.00     0.171 HD
ENDROOT
BRANCH   5   7
HETATM    7  C4  UNL     1      24.089  -0.149  53.689  1.00  0.00     0.131 A 
HETATM    8  C5  UNL     1      24.725   0.813  52.931  1.00  0.00     0.068 A 
HETATM    9  C6  UNL     1      26.036   1.143  53.173  1.00  0.00     0.046 A 
HETATM   10  C7  UNL     1      26.659   2.094  52.420  1.00  0.00     0.163 A 
HETATM   11  C13 UNL     1      26.725   0.511  54.180  1.00  0.00     0.089 A 
HETATM   12  N3  UNL     1      27.944   2.421  52.655  1.00  0.00    -0.222 NA
HETATM   13  C12 UNL     1      28.629   1.794  53.653  1.00  0.00     0.236 A 
HETATM   14  N4  UNL     1      28.022   0.854  54.403  1.00  0.00    -0.240 NA
HETATM   15  C14 UNL     1      26.089  -0.450  54.936  1.00  0.00     0.151 A 
HETATM   16  N5  UNL     1      24.804  -0.740  54.663  1.00  0.00    -0.241 NA
BRANCH  10  17
HETATM   17  N2  UNL     1      26.000   2.795  51.352  1.00  0.00    -0.241 NA
HETATM   18  C8  UNL     1      26.741   3.319  50.428  1.00  0.00     0.119 C 
BRANCH  18  19
HETATM   19  C9  UNL     1      26.082   4.030  49.341  1.00  0.00     0.016 C 
HETATM   20  C10 UNL     1      25.507   5.190  49.541  1.00  0.00    -0.014 C 
BRANCH  20  21
HETATM   21  C11 UNL     1      24.786   6.082  48.599  1.00  0.00     0.112 C 
HETATM   22 BR1  UNL     1      25.974   7.440  47.877  1.00  0.00    -0.092 Br
ENDBRANCH  20  21
ENDBRANCH  18  19
ENDBRANCH  10  17
ENDBRANCH   5   7
TORSDOF 4
ENDMDL
MODEL 6
REMARK VINA RESULT:      -6.8      3.478      4.987
REMARK  4 active torsions:
REMARK  status: ('A' for Active; 'I' for Inactive)
REMARK       I    between atoms: C3_3  and  N1_5 
REMARK    1  A    between atoms: N1_5  and  C4_6 
REMARK    2  A    between atoms: C7_9  and  N2_10 
REMARK    3  A    between atoms: C8_11  and  C9_12 
REMARK    4  A    between atoms: C10_13  and  C11_14 
ROOT
HETATM    1  C1  UNL     1      27.172   4.372  48.861  1.00  0.00     0.022 C 
HETATM    2  C2  UNL     1      26.652   3.780  49.788  1.00  0.00    -0.016 C 
HETATM    3  C3  UNL     1      26.060   3.075  50.892  1.00  0.00     0.301 C 
HETATM    4  O1  UNL     1      25.004   3.481  51.455  1.00  0.00    -0.258 OA
HETATM    5  N1  UNL     1      26.710   1.887  51.344  1.00  0.00    -0.301 N 
HETATM    6  H2  UNL     1      27.576   1.574  50.867  1.00  0.00     0.171 HD
ENDROOT
BRANCH   5   7
HETATM    7  C4  UNL     1      26.216   1.108  52.429  1.00  0.00     0.131 A 
HETATM    8  C5  UNL     1      24.914   0.651  52.451  1.00  0.00     0.068 A 
HETATM    9  C6  UNL     1      24.452  -0.100  53.505  1.00  0.00     0.046 A 
HETATM   10  C7  UNL     1      23.164  -0.549  53.521  1.00  0.00     0.163 A 
HETATM   11  C13 UNL     1      25.292  -0.400  54.549  1.00  0.00     0.089 A 
HETATM   12  N3  UNL     1      22.708  -1.285  54.551  1.00  0.00    -0.222 NA
HETATM   13  C12 UNL     1      23.540  -1.583  55.589  1.00  0.00     0.236 A 
HETATM   14  N4  UNL     1      24.814  -1.145  55.583  1.00  0.00    -0.240 NA
HETATM   15  C14 UNL     1      26.592   0.057  54.527  1.00  0.00     0.151 A 
HETATM   16  N5  UNL     1      27.000   0.789  53.475  1.00  0.00    -0.241 NA
BRANCH  10  17
HETATM   17  N2  UNL     1      22.231  -0.273  52.462  1.00  0.00    -0.241 NA
HETATM   18  C8  UNL     1      21.031   0.083  52.795  1.00  0.00     0.119 C 
BRANCH  18  19
HETATM   19  C9  UNL     1      20.079   0.365  51.729  1.00  0.00     0.016 C 
HETATM   20  C10 UNL     1      18.843  -0.063  51.793  1.00  0.00    -0.014 C 
BRANCH  20  21
HETATM   21  C11 UNL     1      17.717   0.100  50.841  1.00  0.00     0.112 C 
HETATM   22 BR1  UNL     1      16.134  -0.836  51.465  1.00  0.00    -0.092 Br
ENDBRANCH  20  21
ENDBRANCH  18  19
ENDBRANCH  10  17
ENDBRANCH   5   7
TORSDOF 4
ENDMDL
MODEL 7
REMARK VINA RESULT:      -6.6      2.671      5.582
REMARK  4 active torsions:
REMARK  status: ('A' for Active; 'I' for Inactive)
REMARK       I    between atoms: C3_3  and  N1_5 
REMARK    1  A    between atoms: N1_5  and  C4_6 
REMARK    2  A    between atoms: C7_9  and  N2_10 
REMARK    3  A    between atoms: C8_11  and  C9_12 
REMARK    4  A    between atoms: C10_13  and  C11_14 
ROOT
HETATM    1  C1  UNL     1      17.638   2.359  51.427  1.00  0.00     0.022 C 
HETATM    2  C2  UNL     1      18.696   1.776  51.579  1.00  0.00    -0.016 C 
HETATM    3  C3  UNL     1      19.940   1.087  51.781  1.00  0.00     0.301 C 
HETATM    4  O1  UNL     1      20.348   0.195  50.984  1.00  0.00    -0.258 OA
HETATM    5  N1  UNL     1      20.715   1.444  52.926  1.00  0.00    -0.301 N 
HETATM    6  H2  UNL     1      20.360   2.179  53.566  1.00  0.00     0.171 HD
ENDROOT
BRANCH   5   7
HETATM    7  C4  UNL     1      21.964   0.828  53.228  1.00  0.00     0.131 A 
HETATM    8  C5  UNL     1      23.144   1.292  52.684  1.00  0.00     0.068 A 
HETATM    9  C6  UNL     1      24.341   0.688  52.985  1.00  0.00     0.046 A 
HETATM   10  C7  UNL     1      25.504   1.151  52.445  1.00  0.00     0.163 A 
HETATM   11  C13 UNL     1      24.366  -0.389  53.838  1.00  0.00     0.089 A 
HETATM   12  N3  UNL     1      26.678   0.561  52.738  1.00  0.00    -0.222 NA
HETATM   13  C12 UNL     1      26.705  -0.507  53.582  1.00  0.00     0.236 A 
HETATM   14  N4  UNL     1      25.562  -0.972  54.123  1.00  0.00    -0.240 NA
HETATM   15  C14 UNL     1      23.187  -0.852  54.381  1.00  0.00     0.151 A 
HETATM   16  N5  UNL     1      22.039  -0.229  54.057  1.00  0.00    -0.241 NA
BRANCH  10  17
HETATM   17  N2  UNL     1      25.551   2.272  51.546  1.00  0.00    -0.241 NA
HETATM   18  C8  UNL     1      26.571   2.366  50.753  1.00  0.00     0.119 C 
BRANCH  18  19
HETATM   19  C9  UNL     1      26.627   3.499  49.840  1.00  0.00     0.016 C 
HETATM   20  C10 UNL     1      25.696   4.421  49.844  1.00  0.00    -0.014 C 
BRANCH  20  21
HETATM   21  C11 UNL     1      25.549   5.644  49.017  1.00  0.00     0.112 C 
HETATM   22 BR1  UNL     1      27.281   6.315  48.448  1.00  0.00    -0.092 Br
ENDBRANCH  20  21
ENDBRANCH  18  19
ENDBRANCH  10  17
ENDBRANCH   5   7
TORSDOF 4
ENDMDL
MODEL 8
REMARK VINA RESULT:      -6.6      3.284      6.133
REMARK  4 active torsions:
REMARK  status: ('A' for Active; 'I' for Inactive)
REMARK       I    between atoms: C3_3  and  N1_5 
REMARK    1  A    between atoms: N1_5  and  C4_6 
REMARK    2  A    between atoms: C7_9  and  N2_10 
REMARK    3  A    between atoms: C8_11  and  C9_12 
REMARK    4  A    between atoms: C10_13  and  C11_14 
ROOT
HETATM    1  C1  UNL     1      27.120   7.076  48.867  1.00  0.00     0.022 C 
HETATM    2  C2  UNL     1      26.233   6.301  49.177  1.00  0.00    -0.016 C 
HETATM    3  C3  UNL     1      25.178   5.403  49.557  1.00  0.00     0.301 C 
HETATM    4  O1  UNL     1      24.601   4.656  48.716  1.00  0.00    -0.258 OA
HETATM    5  N1  UNL     1      24.793   5.378  50.931  1.00  0.00    -0.301 N 
HETATM    6  H2  UNL     1      25.281   6.000  51.602  1.00  0.00     0.171 HD
ENDROOT
BRANCH   5   7
HETATM    7  C4  UNL     1      23.760   4.529  51.423  1.00  0.00     0.131 A 
HETATM    8  C5  UNL     1      24.036   3.264  51.900  1.00  0.00     0.068 A 
HETATM    9  C6  UNL     1      23.029   2.457  52.371  1.00  0.00     0.046 A 
HETATM   10  C7  UNL     1      23.308   1.208  52.842  1.00  0.00     0.163 A 
HETATM   11  C13 UNL     1      21.733   2.912  52.369  1.00  0.00     0.089 A 
HETATM   12  N3  UNL     1      22.324   0.415  53.304  1.00  0.00    -0.222 NA
HETATM   13  C12 UNL     1      21.037   0.863  53.302  1.00  0.00     0.236 A 
HETATM   14  N4  UNL     1      20.751   2.096  52.840  1.00  0.00    -0.240 NA
HETATM   15  C14 UNL     1      21.458   4.175  51.892  1.00  0.00     0.151 A 
HETATM   16  N5  UNL     1      22.476   4.930  51.441  1.00  0.00    -0.241 NA
BRANCH  10  17
HETATM   17  N2  UNL     1      24.640   0.669  52.873  1.00  0.00    -0.241 NA
HETATM   18  C8  UNL     1      25.038   0.112  53.973  1.00  0.00     0.119 C 
BRANCH  18  19
HETATM   19  C9  UNL     1      26.387  -0.438  54.014  1.00  0.00     0.016 C 
HETATM   20  C10 UNL     1      27.400   0.283  54.424  1.00  0.00    -0.014 C 
BRANCH  20  21
HETATM   21  C11 UNL     1      28.838  -0.060  54.548  1.00  0.00     0.112 C 
HETATM   22 BR1  UNL     1      29.307  -1.538  53.375  1.00  0.00    -0.092 Br
ENDBRANCH  20  21
ENDBRANCH  18  19
ENDBRANCH  10  17
ENDBRANCH   5   7
TORSDOF 4
ENDMDL
MODEL 9
REMARK VINA RESULT:      -6.6      3.263      6.275
REMARK  4 active torsions:
REMARK  status: ('A' for Active; 'I' for Inactive)
REMARK       I    between atoms: C3_3  and  N1_5 
REMARK    1  A    between atoms: N1_5  and  C4_6 
REMARK    2  A    between atoms: C7_9  and  N2_10 
REMARK    3  A    between atoms: C8_11  and  C9_12 
REMARK    4  A    between atoms: C10_13  and  C11_14 
ROOT
HETATM    1  C1  UNL     1      23.409   5.334  48.034  1.00  0.00     0.022 C 
HETATM    2  C2  UNL     1      23.864   4.838  49.049  1.00  0.00    -0.016 C 
HETATM    3  C3  UNL     1      24.422   4.249  50.235  1.00  0.00     0.301 C 
HETATM    4  O1  UNL     1      24.167   4.699  51.388  1.00  0.00    -0.258 OA
HETATM    5  N1  UNL     1      25.286   3.124  50.072  1.00  0.00    -0.301 N 
HETATM    6  H2  UNL     1      25.480   2.773  49.116  1.00  0.00     0.171 HD
ENDROOT
BRANCH   5   7
HETATM    7  C4  UNL     1      25.896   2.460  51.175  1.00  0.00     0.131 A 
HETATM    8  C5  UNL     1      25.250   1.443  51.849  1.00  0.00     0.068 A 
HETATM    9  C6  UNL     1      25.851   0.812  52.910  1.00  0.00     0.046 A 
HETATM   10  C7  UNL     1      25.208  -0.192  53.571  1.00  0.00     0.163 A 
HETATM   11  C13 UNL     1      27.109   1.195  53.308  1.00  0.00     0.089 A 
HETATM   12  N3  UNL     1      25.794  -0.813  54.612  1.00  0.00    -0.222 NA
HETATM   13  C12 UNL     1      27.042  -0.434  55.008  1.00  0.00     0.236 A 
HETATM   14  N4  UNL     1      27.687   0.556  54.361  1.00  0.00    -0.240 NA
HETATM   15  C14 UNL     1      27.754   2.210  52.635  1.00  0.00     0.151 A 
HETATM   16  N5  UNL     1      27.126   2.800  51.601  1.00  0.00    -0.241 NA
BRANCH  10  17
HETATM   17  N2  UNL     1      23.892  -0.643  53.209  1.00  0.00    -0.241 NA
HETATM   18  C8  UNL     1      22.965  -0.581  54.111  1.00  0.00     0.119 C 
BRANCH  18  19
HETATM   19  C9  UNL     1      21.628  -1.036  53.753  1.00  0.00     0.016 C 
HETATM   20  C10 UNL     1      20.623  -0.200  53.685  1.00  0.00    -0.014 C 
BRANCH  20  21
HETATM   21  C11 UNL     1      19.197  -0.434  53.347  1.00  0.00     0.112 C 
HETATM   22 BR1  UNL     1      18.815   0.110  51.520  1.00  0.00    -0.092 Br
ENDBRANCH  20  21
ENDBRANCH  18  19
ENDBRANCH  10  17
ENDBRANCH   5   7
TORSDOF 4
ENDMDL
