MODEL 1
REMARK VINA RESULT:      -8.6      0.000      0.000
REMARK  5 active torsions:
REMARK  status: ('A' for Active; 'I' for Inactive)
REMARK    1  A    between atoms: C3_3  and  C4_4 
REMARK       I    between atoms: C4_4  and  N1_6 
REMARK    2  A    between atoms: N1_6  and  C5_7 
REMARK    3  A    between atoms: C8_10  and  C9_11 
REMARK    4  A    between atoms: C12_14  and  N2_15 
REMARK    5  A    between atoms: C18_22  and  C19_23 
ROOT
HETATM    1  C5  UNL     1      24.003   3.565  51.695  1.00  0.00     0.042 A 
HETATM    2  C6  UNL     1      24.402   2.376  52.245  1.00  0.00     0.044 A 
HETATM    3  C7  UNL     1      23.581   1.409  52.752  1.00  0.00     0.006 A 
HETATM    4  C8  UNL     1      24.159   0.296  53.281  1.00  0.00    -0.012 A 
HETATM    5  C14 UNL     1      23.177  -0.567  53.784  1.00  0.00     0.032 A 
HETATM    6  C15 UNL     1      21.842  -0.342  53.753  1.00  0.00     0.118 A 
HETATM    7  N3  UNL     1      21.402   0.797  53.197  1.00  0.00    -0.260 NA
HETATM    8  C16 UNL     1      22.245   1.711  52.679  1.00  0.00     0.068 A 
HETATM    9  C17 UNL     1      21.792   2.888  52.138  1.00  0.00     0.041 A 
HETATM   10  C18 UNL     1      22.634   3.853  51.629  1.00  0.00    -0.029 A 
ENDROOT
BRANCH   4  11
HETATM   11  C9  UNL     1      25.528  -0.135  53.271  1.00  0.00    -0.026 A 
HETATM   12  C10 UNL     1      26.339  -0.881  52.567  1.00  0.00    -0.009 A 
HETATM   13  C11 UNL     1      27.740  -0.971  53.044  1.00  0.00     0.084 A 
HETATM   14  C12 UNL     1      27.675  -0.096  54.230  1.00  0.00     0.007 A 
HETATM   15  C13 UNL     1      26.449   0.335  54.314  1.00  0.00     0.036 A 
BRANCH  14  16
HETATM   16  N2  UNL     1      28.824   0.114  54.999  1.00  0.00    -0.402 N 
HETATM   17  H11 UNL     1      29.594   0.280  54.334  1.00  0.00     0.156 HD
HETATM   18  H12 UNL     1      28.748   0.077  56.048  1.00  0.00     0.156 HD
ENDBRANCH  14  16
ENDBRANCH   4  11
BRANCH   1  19
HETATM   19  N1  UNL     1      24.923   4.548  51.175  1.00  0.00    -0.323 N 
HETATM   20  C4  UNL     1      25.435   4.258  49.859  1.00  0.00     0.245 C 
HETATM   21  O1  UNL     1      24.937   3.172  49.456  1.00  0.00    -0.268 OA
HETATM   22  H6  UNL     1      25.178   5.396  51.736  1.00  0.00     0.169 HD
BRANCH  20  23
HETATM   23  C3  UNL     1      26.360   5.180  49.255  1.00  0.00     0.070 C 
HETATM   24  C2  UNL     1      27.504   4.991  48.656  1.00  0.00    -0.026 C 
HETATM   25  C1  UNL     1      28.259   6.139  48.118  1.00  0.00     0.036 C 
ENDBRANCH  20  23
ENDBRANCH   1  19
BRANCH  10  26
HETATM   26  C19 UNL     1      22.116   5.114  51.050  1.00  0.00     0.036 C 
HETATM   27  C20 UNL     1      21.662   4.979  49.622  1.00  0.00     0.010 C 
ENDBRANCH  10  26
TORSDOF 5
ENDMDL
MODEL 2
REMARK VINA RESULT:      -8.2      1.953      5.878
REMARK  5 active torsions:
REMARK  status: ('A' for Active; 'I' for Inactive)
REMARK    1  A    between atoms: C3_3  and  C4_4 
REMARK       I    between atoms: C4_4  and  N1_6 
REMARK    2  A    between atoms: N1_6  and  C5_7 
REMARK    3  A    between atoms: C8_10  and  C9_11 
REMARK    4  A    between atoms: C12_14  and  N2_15 
REMARK    5  A    between atoms: C18_22  and  C19_23 
ROOT
HETATM    1  C5  UNL     1      24.574   1.234  52.421  1.00  0.00     0.042 A 
HETATM    2  C6  UNL     1      24.332   2.380  51.712  1.00  0.00     0.044 A 
HETATM    3  C7  UNL     1      23.131   3.023  51.608  1.00  0.00     0.006 A 
HETATM    4  C8  UNL     1      23.074   4.144  50.838  1.00  0.00    -0.012 A 
HETATM    5  C14 UNL     1      21.767   4.648  50.813  1.00  0.00     0.032 A 
HETATM    6  C15 UNL     1      20.705   4.111  51.460  1.00  0.00     0.118 A 
HETATM    7  N3  UNL     1      20.899   3.003  52.191  1.00  0.00    -0.260 NA
HETATM    8  C16 UNL     1      22.108   2.418  52.294  1.00  0.00     0.068 A 
HETATM    9  C17 UNL     1      22.297   1.269  53.019  1.00  0.00     0.041 A 
HETATM   10  C18 UNL     1      23.517   0.633  53.115  1.00  0.00    -0.029 A 
ENDROOT
BRANCH   4  11
HETATM   11  C9  UNL     1      24.122   4.893  50.206  1.00  0.00    -0.026 A 
HETATM   12  C10 UNL     1      24.842   4.885  49.114  1.00  0.00    -0.009 A 
HETATM   13  C11 UNL     1      25.839   5.972  48.969  1.00  0.00     0.084 A 
HETATM   14  C12 UNL     1      25.606   6.718  50.220  1.00  0.00     0.007 A 
HETATM   15  C13 UNL     1      24.662   6.091  50.862  1.00  0.00     0.036 A 
BRANCH  14  16
HETATM   16  N2  UNL     1      26.357   7.865  50.493  1.00  0.00    -0.402 N 
HETATM   17  H11 UNL     1      27.208   7.547  50.981  1.00  0.00     0.156 HD
HETATM   18  H12 UNL     1      25.984   8.801  50.190  1.00  0.00     0.156 HD
ENDBRANCH  14  16
ENDBRANCH   4  11
BRANCH   1  19
HETATM   19  N1  UNL     1      25.869   0.602  52.492  1.00  0.00    -0.323 N 
HETATM   20  C4  UNL     1      26.750   1.144  53.497  1.00  0.00     0.245 C 
HETATM   21  O1  UNL     1      26.156   2.078  54.101  1.00  0.00    -0.268 OA
HETATM   22  H6  UNL     1      26.120  -0.187  51.848  1.00  0.00     0.169 HD
BRANCH  20  23
HETATM   23  C3  UNL     1      28.066   0.581  53.645  1.00  0.00     0.070 C 
HETATM   24  C2  UNL     1      28.526  -0.617  53.411  1.00  0.00    -0.026 C 
HETATM   25  C1  UNL     1      29.948  -0.927  53.655  1.00  0.00     0.036 C 
ENDBRANCH  20  23
ENDBRANCH   1  19
BRANCH  10  26
HETATM   26  C19 UNL     1      23.689  -0.606  53.906  1.00  0.00     0.036 C 
HETATM   27  C20 UNL     1      22.456  -1.011  54.668  1.00  0.00     0.010 C 
ENDBRANCH  10  26
TORSDOF 5
ENDMDL
MODEL 3
REMARK VINA RESULT:      -8.2      2.123      5.457
REMARK  5 active torsions:
REMARK  status: ('A' for Active; 'I' for Inactive)
REMARK    1  A    between atoms: C3_3  and  C4_4 
REMARK       I    between atoms: C4_4  and  N1_6 
REMARK    2  A    between atoms: N1_6  and  C5_7 
REMARK    3  A    between atoms: C8_10  and  C9_11 
REMARK    4  A    between atoms: C12_14  and  N2_15 
REMARK    5  A    between atoms: C18_22  and  C19_23 
ROOT
HETATM    1  C5  UNL     1      25.058   1.556  51.729  1.00  0.00     0.042 A 
HETATM    2  C6  UNL     1      23.807   1.289  52.219  1.00  0.00     0.044 A 
HETATM    3  C7  UNL     1      22.715   2.105  52.123  1.00  0.00     0.006 A 
HETATM    4  C8  UNL     1      21.552   1.681  52.691  1.00  0.00    -0.012 A 
HETATM    5  C14 UNL     1      20.555   2.652  52.532  1.00  0.00     0.032 A 
HETATM    6  C15 UNL     1      20.709   3.842  51.903  1.00  0.00     0.118 A 
HETATM    7  N3  UNL     1      21.910   4.135  51.382  1.00  0.00    -0.260 NA
HETATM    8  C16 UNL     1      22.953   3.287  51.470  1.00  0.00     0.068 A 
HETATM    9  C17 UNL     1      24.187   3.604  50.961  1.00  0.00     0.041 A 
HETATM   10  C18 UNL     1      25.279   2.768  51.065  1.00  0.00    -0.029 A 
ENDROOT
BRANCH   4  11
HETATM   11  C9  UNL     1      21.207   0.414  53.269  1.00  0.00    -0.026 A 
HETATM   12  C10 UNL     1      21.752  -0.558  53.953  1.00  0.00    -0.009 A 
HETATM   13  C11 UNL     1      20.870  -1.694  54.310  1.00  0.00     0.084 A 
HETATM   14  C12 UNL     1      19.599  -1.244  53.711  1.00  0.00     0.007 A 
HETATM   15  C13 UNL     1      19.832  -0.091  53.153  1.00  0.00     0.036 A 
BRANCH  14  16
HETATM   16  N2  UNL     1      18.458  -2.044  53.825  1.00  0.00    -0.402 N 
HETATM   17  H11 UNL     1      17.777  -1.504  54.379  1.00  0.00     0.156 HD
HETATM   18  H12 UNL     1      18.455  -2.994  53.373  1.00  0.00     0.156 HD
ENDBRANCH  14  16
ENDBRANCH   4  11
BRANCH   1  19
HETATM   19  N1  UNL     1      26.172   0.649  51.863  1.00  0.00    -0.323 N 
HETATM   20  C4  UNL     1      26.799   0.650  53.161  1.00  0.00     0.245 C 
HETATM   21  O1  UNL     1      26.201   1.475  53.903  1.00  0.00    -0.268 OA
HETATM   22  H6  UNL     1      26.478   0.049  51.059  1.00  0.00     0.169 HD
BRANCH  20  23
HETATM   23  C3  UNL     1      27.921  -0.220  53.393  1.00  0.00     0.070 C 
HETATM   24  C2  UNL     1      29.189   0.030  53.567  1.00  0.00    -0.026 C 
HETATM   25  C1  UNL     1      30.140  -1.077  53.790  1.00  0.00     0.036 C 
ENDBRANCH  20  23
ENDBRANCH   1  19
BRANCH  10  26
HETATM   26  C19 UNL     1      26.599   3.137  50.505  1.00  0.00     0.036 C 
HETATM   27  C20 UNL     1      26.515   4.094  49.347  1.00  0.00     0.010 C 
ENDBRANCH  10  26
TORSDOF 5
ENDMDL
MODEL 4
REMARK VINA RESULT:      -8.2      2.312      5.228
REMARK  5 active torsions:
REMARK  status: ('A' for Active; 'I' for Inactive)
REMARK    1  A    between atoms: C3_3  and  C4_4 
REMARK       I    between atoms: C4_4  and  N1_6 
REMARK    2  A    between atoms: N1_6  and  C5_7 
REMARK    3  A    between atoms: C8_10  and  C9_11 
REMARK    4  A    between atoms: C12_14  and  N2_15 
REMARK    5  A    between atoms: C18_22  and  C19_23 
ROOT
HETATM    1  C5  UNL     1      25.926   0.724  52.385  1.00  0.00     0.042 A 
HETATM    2  C6  UNL     1      24.576   0.502  52.435  1.00  0.00     0.044 A 
HETATM    3  C7  UNL     1      23.904  -0.151  53.430  1.00  0.00     0.006 A 
HETATM    4  C8  UNL     1      22.557  -0.296  53.300  1.00  0.00    -0.012 A 
HETATM    5  C14 UNL     1      22.040  -1.017  54.383  1.00  0.00     0.032 A 
HETATM    6  C15 UNL     1      22.764  -1.503  55.420  1.00  0.00     0.118 A 
HETATM    7  N3  UNL     1      24.088  -1.286  55.429  1.00  0.00    -0.260 NA
HETATM    8  C16 UNL     1      24.707  -0.608  54.444  1.00  0.00     0.068 A 
HETATM    9  C17 UNL     1      26.066  -0.413  54.442  1.00  0.00     0.041 A 
HETATM   10  C18 UNL     1      26.727   0.250  53.431  1.00  0.00    -0.029 A 
ENDROOT
BRANCH   4  11
HETATM   11  C9  UNL     1      21.649   0.265  52.339  1.00  0.00    -0.026 A 
HETATM   12  C10 UNL     1      21.336   0.156  51.074  1.00  0.00    -0.009 A 
HETATM   13  C11 UNL     1      20.246   1.034  50.583  1.00  0.00     0.084 A 
HETATM   14  C12 UNL     1      19.897   1.747  51.826  1.00  0.00     0.007 A 
HETATM   15  C13 UNL     1      20.690   1.295  52.756  1.00  0.00     0.036 A 
BRANCH  14  16
HETATM   16  N2  UNL     1      18.873   2.699  51.814  1.00  0.00    -0.402 N 
HETATM   17  H11 UNL     1      18.873   3.115  50.871  1.00  0.00     0.156 HD
HETATM   18  H12 UNL     1      18.301   2.842  52.685  1.00  0.00     0.156 HD
ENDBRANCH  14  16
ENDBRANCH   4  11
BRANCH   1  19
HETATM   19  N1  UNL     1      26.577   1.423  51.304  1.00  0.00    -0.323 N 
HETATM   20  C4  UNL     1      26.101   2.766  51.081  1.00  0.00     0.245 C 
HETATM   21  O1  UNL     1      25.194   3.022  51.918  1.00  0.00    -0.268 OA
HETATM   22  H6  UNL     1      27.333   0.963  50.743  1.00  0.00     0.169 HD
BRANCH  20  23
HETATM   23  C3  UNL     1      26.688   3.545  50.024  1.00  0.00     0.070 C 
HETATM   24  C2  UNL     1      26.475   4.771  49.631  1.00  0.00    -0.026 C 
HETATM   25  C1  UNL     1      27.235   5.328  48.495  1.00  0.00     0.036 C 
ENDBRANCH  20  23
ENDBRANCH   1  19
BRANCH  10  26
HETATM   26  C19 UNL     1      28.195   0.445  53.458  1.00  0.00     0.036 C 
HETATM   27  C20 UNL     1      28.974  -0.840  53.382  1.00  0.00     0.010 C 
ENDBRANCH  10  26
TORSDOF 5
ENDMDL
MODEL 5
REMARK VINA RESULT:      -8.1      2.096      2.257
REMARK  5 active torsions:
REMARK  status: ('A' for Active; 'I' for Inactive)
REMARK    1  A    between atoms: C3_3  and  C4_4 
REMARK       I    between atoms: C4_4  and  N1_6 
REMARK    2  A    between atoms: N1_6  and  C5_7 
REMARK    3  A    between atoms: C8_10  and  C9_11 
REMARK    4  A    between atoms: C12_14  and  N2_15 
REMARK    5  A    between atoms: C18_22  and  C19_23 
ROOT
HETATM    1  C5  UNL     1      22.554   2.856  51.906  1.00  0.00     0.042 A 
HETATM    2  C6  UNL     1      23.320   1.881  52.489  1.00  0.00     0.044 A 
HETATM    3  C7  UNL     1      22.857   0.830  53.229  1.00  0.00     0.006 A 
HETATM    4  C8  UNL     1      23.772  -0.033  53.751  1.00  0.00    -0.012 A 
HETATM    5  C14 UNL     1      23.129  -1.021  54.507  1.00  0.00     0.032 A 
HETATM    6  C15 UNL     1      21.791  -1.120  54.696  1.00  0.00     0.118 A 
HETATM    7  N3  UNL     1      20.998  -0.204  54.120  1.00  0.00    -0.260 NA
HETATM    8  C16 UNL     1      21.493   0.800  53.371  1.00  0.00     0.068 A 
HETATM    9  C17 UNL     1      20.680   1.751  52.807  1.00  0.00     0.041 A 
HETATM   10  C18 UNL     1      21.164   2.805  52.062  1.00  0.00    -0.029 A 
ENDROOT
BRANCH   4  11
HETATM   11  C9  UNL     1      25.187  -0.130  53.535  1.00  0.00    -0.026 A 
HETATM   12  C10 UNL     1      26.037  -0.555  52.637  1.00  0.00    -0.009 A 
HETATM   13  C11 UNL     1      27.476  -0.390  52.955  1.00  0.00     0.084 A 
HETATM   14  C12 UNL     1      27.385   0.258  54.277  1.00  0.00     0.007 A 
HETATM   15  C13 UNL     1      26.117   0.378  54.552  1.00  0.00     0.036 A 
BRANCH  14  16
HETATM   16  N2  UNL     1      28.555   0.609  54.959  1.00  0.00    -0.402 N 
HETATM   17  H11 UNL     1      28.628  -0.034  55.761  1.00  0.00     0.156 HD
HETATM   18  H12 UNL     1      29.138   1.403  54.592  1.00  0.00     0.156 HD
ENDBRANCH  14  16
ENDBRANCH   4  11
BRANCH   1  19
HETATM   19  N1  UNL     1      23.106   3.943  51.134  1.00  0.00    -0.323 N 
HETATM   20  C4  UNL     1      23.564   5.065  51.915  1.00  0.00     0.245 C 
HETATM   21  O1  UNL     1      23.368   4.821  53.136  1.00  0.00    -0.268 OA
HETATM   22  H6  UNL     1      23.155   3.890  50.088  1.00  0.00     0.169 HD
BRANCH  20  23
HETATM   23  C3  UNL     1      24.130   6.200  51.235  1.00  0.00     0.070 C 
HETATM   24  C2  UNL     1      23.597   7.318  50.826  1.00  0.00    -0.026 C 
HETATM   25  C1  UNL     1      24.427   8.329  50.143  1.00  0.00     0.036 C 
ENDBRANCH  20  23
ENDBRANCH   1  19
BRANCH  10  26
HETATM   26  C19 UNL     1      20.262   3.817  51.466  1.00  0.00     0.036 C 
HETATM   27  C20 UNL     1      19.551   3.336  50.230  1.00  0.00     0.010 C 
ENDBRANCH  10  26
TORSDOF 5
ENDMDL
MODEL 6
REMARK VINA RESULT:      -7.9      2.272      3.203
REMARK  5 active torsions:
REMARK  status: ('A' for Active; 'I' for Inactive)
REMARK    1  A    between atoms: C3_3  and  C4_4 
REMARK       I    between atoms: C4_4  and  N1_6 
REMARK    2  A    between atoms: N1_6  and  C5_7 
REMARK    3  A    between atoms: C8_10  and  C9_11 
REMARK    4  A    between atoms: C12_14  and  N2_15 
REMARK    5  A    between atoms: C18_22  and  C19_23 
ROOT
HETATM    1  C5  UNL     1      22.166   0.809  51.539  1.00  0.00     0.042 A 
HETATM    2  C6  UNL     1      23.246   0.470  52.311  1.00  0.00     0.044 A 
HETATM    3  C7  UNL     1      23.216  -0.289  53.446  1.00  0.00     0.006 A 
HETATM    4  C8  UNL     1      24.391  -0.507  54.098  1.00  0.00    -0.012 A 
HETATM    5  C14 UNL     1      24.171  -1.267  55.253  1.00  0.00     0.032 A 
HETATM    6  C15 UNL     1      22.969  -1.730  55.672  1.00  0.00     0.118 A 
HETATM    7  N3  UNL     1      21.885  -1.447  54.933  1.00  0.00    -0.260 NA
HETATM    8  C16 UNL     1      21.963  -0.722  53.800  1.00  0.00     0.068 A 
HETATM    9  C17 UNL     1      20.848  -0.410  53.062  1.00  0.00     0.041 A 
HETATM   10  C18 UNL     1      20.897   0.356  51.917  1.00  0.00    -0.029 A 
ENDROOT
BRANCH   4  11
HETATM   11  C9  UNL     1      25.739  -0.195  53.714  1.00  0.00    -0.026 A 
HETATM   12  C10 UNL     1      26.561  -0.368  52.712  1.00  0.00    -0.009 A 
HETATM   13  C11 UNL     1      27.919   0.208  52.862  1.00  0.00     0.084 A 
HETATM   14  C12 UNL     1      27.805   0.817  54.201  1.00  0.00     0.007 A 
HETATM   15  C13 UNL     1      26.599   0.570  54.626  1.00  0.00     0.036 A 
BRANCH  14  16
HETATM   16  N2  UNL     1      28.897   1.497  54.748  1.00  0.00    -0.402 N 
HETATM   17  H11 UNL     1      29.117   2.266  54.098  1.00  0.00     0.156 HD
HETATM   18  H12 UNL     1      29.302   1.161  55.658  1.00  0.00     0.156 HD
ENDBRANCH  14  16
ENDBRANCH   4  11
BRANCH   1  19
HETATM   19  N1  UNL     1      22.264   1.616  50.347  1.00  0.00    -0.323 N 
HETATM   20  C4  UNL     1      22.324   3.037  50.584  1.00  0.00     0.245 C 
HETATM   21  O1  UNL     1      22.275   3.247  51.826  1.00  0.00    -0.268 OA
HETATM   22  H6  UNL     1      22.289   1.172  49.397  1.00  0.00     0.169 HD
BRANCH  20  23
HETATM   23  C3  UNL     1      22.423   3.926  49.457  1.00  0.00     0.070 C 
HETATM   24  C2  UNL     1      23.400   4.677  49.029  1.00  0.00    -0.026 C 
HETATM   25  C1  UNL     1      23.225   5.506  47.821  1.00  0.00     0.036 C 
ENDBRANCH  20  23
ENDBRANCH   1  19
BRANCH  10  26
HETATM   26  C19 UNL     1      19.676   0.675  51.142  1.00  0.00     0.036 C 
HETATM   27  C20 UNL     1      18.468  -0.114  51.568  1.00  0.00     0.010 C 
ENDBRANCH  10  26
TORSDOF 5
ENDMDL
MODEL 7
REMARK VINA RESULT:      -7.8      2.318      5.992
REMARK  5 active torsions:
REMARK  status: ('A' for Active; 'I' for Inactive)
REMARK    1  A    between atoms: C3_3  and  C4_4 
REMARK       I    between atoms: C4_4  and  N1_6 
REMARK    2  A    between atoms: N1_6  and  C5_7 
REMARK    3  A    between atoms: C8_10  and  C9_11 
REMARK    4  A    between atoms: C12_14  and  N2_15 
REMARK    5  A    between atoms: C18_22  and  C19_23 
ROOT
HETATM    1  C5  UNL     1      22.084   1.206  53.051  1.00  0.00     0.042 A 
HETATM    2  C6  UNL     1      23.207   1.616  52.382  1.00  0.00     0.044 A 
HETATM    3  C7  UNL     1      24.427   1.002  52.407  1.00  0.00     0.006 A 
HETATM    4  C8  UNL     1      25.439   1.567  51.693  1.00  0.00    -0.012 A 
HETATM    5  C14 UNL     1      26.620   0.832  51.863  1.00  0.00     0.032 A 
HETATM    6  C15 UNL     1      26.750  -0.283  52.620  1.00  0.00     0.118 A 
HETATM    7  N3  UNL     1      25.669  -0.739  53.272  1.00  0.00    -0.260 NA
HETATM    8  C16 UNL     1      24.475  -0.121  53.194  1.00  0.00     0.068 A 
HETATM    9  C17 UNL     1      23.379  -0.574  53.885  1.00  0.00     0.041 A 
HETATM   10  C18 UNL     1      22.154   0.057  53.847  1.00  0.00    -0.029 A 
ENDROOT
BRANCH   4  11
HETATM   11  C9  UNL     1      25.423   2.655  50.758  1.00  0.00    -0.026 A 
HETATM   12  C10 UNL     1      24.571   3.402  50.104  1.00  0.00    -0.009 A 
HETATM   13  C11 UNL     1      25.146   4.447  49.224  1.00  0.00     0.084 A 
HETATM   14  C12 UNL     1      26.587   4.229  49.454  1.00  0.00     0.007 A 
HETATM   15  C13 UNL     1      26.688   3.240  50.296  1.00  0.00     0.036 A 
BRANCH  14  16
HETATM   16  N2  UNL     1      27.523   5.035  48.800  1.00  0.00    -0.402 N 
HETATM   17  H11 UNL     1      27.044   5.922  48.585  1.00  0.00     0.156 HD
HETATM   18  H12 UNL     1      28.491   4.659  48.635  1.00  0.00     0.156 HD
ENDBRANCH  14  16
ENDBRANCH   4  11
BRANCH   1  19
HETATM   19  N1  UNL     1      20.821   1.900  52.982  1.00  0.00    -0.323 N 
HETATM   20  C4  UNL     1      20.034   1.605  51.811  1.00  0.00     0.245 C 
HETATM   21  O1  UNL     1      20.659   0.776  51.096  1.00  0.00    -0.268 OA
HETATM   22  H6  UNL     1      20.528   2.562  53.741  1.00  0.00     0.169 HD
BRANCH  20  23
HETATM   23  C3  UNL     1      18.757   2.249  51.651  1.00  0.00     0.070 C 
HETATM   24  C2  UNL     1      18.433   3.505  51.511  1.00  0.00    -0.026 C 
HETATM   25  C1  UNL     1      17.016   3.893  51.363  1.00  0.00     0.036 C 
ENDBRANCH  20  23
ENDBRANCH   1  19
BRANCH  10  26
HETATM   26  C19 UNL     1      20.989  -0.457  54.603  1.00  0.00     0.036 C 
HETATM   27  C20 UNL     1      20.260  -1.571  53.903  1.00  0.00     0.010 C 
ENDBRANCH  10  26
TORSDOF 5
ENDMDL
MODEL 8
REMARK VINA RESULT:      -7.8      1.936      4.765
REMARK  5 active torsions:
REMARK  status: ('A' for Active; 'I' for Inactive)
REMARK    1  A    between atoms: C3_3  and  C4_4 
REMARK       I    between atoms: C4_4  and  N1_6 
REMARK    2  A    between atoms: N1_6  and  C5_7 
REMARK    3  A    between atoms: C8_10  and  C9_11 
REMARK    4  A    between atoms: C12_14  and  N2_15 
REMARK    5  A    between atoms: C18_22  and  C19_23 
ROOT
HETATM    1  C5  UNL     1      24.404   3.920  50.361  1.00  0.00     0.042 A 
HETATM    2  C6  UNL     1      24.011   2.858  51.131  1.00  0.00     0.044 A 
HETATM    3  C7  UNL     1      24.827   1.890  51.643  1.00  0.00     0.006 A 
HETATM    4  C8  UNL     1      24.254   0.893  52.372  1.00  0.00    -0.012 A 
HETATM    5  C14 UNL     1      25.227  -0.026  52.785  1.00  0.00     0.032 A 
HETATM    6  C15 UNL     1      26.551   0.054  52.510  1.00  0.00     0.118 A 
HETATM    7  N3  UNL     1      26.988   1.093  51.782  1.00  0.00    -0.260 NA
HETATM    8  C16 UNL     1      26.152   2.045  51.323  1.00  0.00     0.068 A 
HETATM    9  C17 UNL     1      26.599   3.091  50.555  1.00  0.00     0.041 A 
HETATM   10  C18 UNL     1      25.761   4.061  50.047  1.00  0.00    -0.029 A 
ENDROOT
BRANCH   4  11
HETATM   11  C9  UNL     1      22.908   0.745  52.847  1.00  0.00    -0.026 A 
HETATM   12  C10 UNL     1      21.792   1.422  52.926  1.00  0.00    -0.009 A 
HETATM   13  C11 UNL     1      20.638   0.729  53.548  1.00  0.00     0.084 A 
HETATM   14  C12 UNL     1      21.246  -0.579  53.856  1.00  0.00     0.007 A 
HETATM   15  C13 UNL     1      22.485  -0.522  53.457  1.00  0.00     0.036 A 
BRANCH  14  16
HETATM   16  N2  UNL     1      20.475  -1.574  54.465  1.00  0.00    -0.402 N 
HETATM   17  H11 UNL     1      20.944  -1.802  55.355  1.00  0.00     0.156 HD
HETATM   18  H12 UNL     1      19.610  -1.918  53.976  1.00  0.00     0.156 HD
ENDBRANCH  14  16
ENDBRANCH   4  11
BRANCH   1  19
HETATM   19  N1  UNL     1      23.489   4.912  49.850  1.00  0.00    -0.323 N 
HETATM   20  C4  UNL     1      23.140   5.951  50.787  1.00  0.00     0.245 C 
HETATM   21  O1  UNL     1      23.741   5.740  51.874  1.00  0.00    -0.268 OA
HETATM   22  H6  UNL     1      23.125   4.853  48.868  1.00  0.00     0.169 HD
BRANCH  20  23
HETATM   23  C3  UNL     1      22.233   6.987  50.370  1.00  0.00     0.070 C 
HETATM   24  C2  UNL     1      22.414   8.058  49.648  1.00  0.00    -0.026 C 
HETATM   25  C1  UNL     1      21.284   8.965  49.369  1.00  0.00     0.036 C 
ENDBRANCH  20  23
ENDBRANCH   1  19
BRANCH  10  26
HETATM   26  C19 UNL     1      26.273   5.178  49.222  1.00  0.00     0.036 C 
HETATM   27  C20 UNL     1      27.626   4.912  48.621  1.00  0.00     0.010 C 
ENDBRANCH  10  26
TORSDOF 5
ENDMDL
MODEL 9
REMARK VINA RESULT:      -7.6      3.134      3.493
REMARK  5 active torsions:
REMARK  status: ('A' for Active; 'I' for Inactive)
REMARK    1  A    between atoms: C3_3  and  C4_4 
REMARK       I    between atoms: C4_4  and  N1_6 
REMARK    2  A    between atoms: N1_6  and  C5_7 
REMARK    3  A    between atoms: C8_10  and  C9_11 
REMARK    4  A    between atoms: C12_14  and  N2_15 
REMARK    5  A    between atoms: C18_22  and  C19_23 
ROOT
HETATM    1  C5  UNL     1      21.499   1.650  50.833  1.00  0.00     0.042 A 
HETATM    2  C6  UNL     1      22.520   1.200  51.628  1.00  0.00     0.044 A 
HETATM    3  C7  UNL     1      22.404   0.309  52.657  1.00  0.00     0.006 A 
HETATM    4  C8  UNL     1      23.530  -0.007  53.355  1.00  0.00    -0.012 A 
HETATM    5  C14 UNL     1      23.222  -0.899  54.391  1.00  0.00     0.032 A 
HETATM    6  C15 UNL     1      21.990  -1.387  54.668  1.00  0.00     0.118 A 
HETATM    7  N3  UNL     1      20.963  -0.997  53.898  1.00  0.00    -0.260 NA
HETATM    8  C16 UNL     1      21.126  -0.141  52.871  1.00  0.00     0.068 A 
HETATM    9  C17 UNL     1      20.068   0.278  52.103  1.00  0.00     0.041 A 
HETATM   10  C18 UNL     1      20.203   1.177  51.066  1.00  0.00    -0.029 A 
ENDROOT
BRANCH   4  11
HETATM   11  C9  UNL     1      24.903   0.324  53.105  1.00  0.00    -0.026 A 
HETATM   12  C10 UNL     1      25.911  -0.068  52.369  1.00  0.00    -0.009 A 
HETATM   13  C11 UNL     1      27.176   0.689  52.520  1.00  0.00     0.084 A 
HETATM   14  C12 UNL     1      26.771   1.690  53.526  1.00  0.00     0.007 A 
HETATM   15  C13 UNL     1      25.524   1.450  53.814  1.00  0.00     0.036 A 
BRANCH  14  16
HETATM   16  N2  UNL     1      27.695   2.643  53.965  1.00  0.00    -0.402 N 
HETATM   17  H11 UNL     1      27.727   3.374  53.239  1.00  0.00     0.156 HD
HETATM   18  H12 UNL     1      28.179   2.495  54.887  1.00  0.00     0.156 HD
ENDBRANCH  14  16
ENDBRANCH   4  11
BRANCH   1  19
HETATM   19  N1  UNL     1      21.688   2.594  49.758  1.00  0.00    -0.323 N 
HETATM   20  C4  UNL     1      21.922   1.998  48.466  1.00  0.00     0.245 C 
HETATM   21  O1  UNL     1      21.905   0.743  48.585  1.00  0.00    -0.268 OA
HETATM   22  H6  UNL     1      21.651   3.626  49.936  1.00  0.00     0.169 HD
BRANCH  20  23
HETATM   23  C3  UNL     1      22.122   2.858  47.330  1.00  0.00     0.070 C 
HETATM   24  C2  UNL     1      21.277   3.485  46.559  1.00  0.00    -0.026 C 
HETATM   25  C1  UNL     1      21.767   4.317  45.443  1.00  0.00     0.036 C 
ENDBRANCH  20  23
ENDBRANCH   1  19
BRANCH  10  26
HETATM   26  C19 UNL     1      19.042   1.610  50.255  1.00  0.00     0.036 C 
HETATM   27  C20 UNL     1      18.137   2.578  50.968  1.00  0.00     0.010 C 
ENDBRANCH  10  26
TORSDOF 5
ENDMDL
