MODEL 1
REMARK VINA RESULT:      -8.2      0.000      0.000
REMARK  7 active torsions:
REMARK  status: ('A' for Active; 'I' for Inactive)
REMARK    1  A    between atoms: C2_2  and  C3_3 
REMARK    2  A    between atoms: C2_2  and  N1_10 
REMARK    3  A    between atoms: C3_3  and  C4_4 
REMARK    4  A    between atoms: N1_10  and  C10_11 
REMARK    5  A    between atoms: C14_17  and  C15_18 
REMARK    6  A    between atoms: C15_18  and  C16_19 
REMARK    7  A    between atoms: C19_22  and  O1_23 
ROOT
HETATM    1  C10 UNL     1      26.344  -0.535  53.218  1.00  0.00     0.139 A 
HETATM    2  N2  UNL     1      27.156  -1.601  53.092  1.00  0.00    -0.224 NA
HETATM    3  C11 UNL     1      28.489  -1.567  53.200  1.00  0.00     0.235 A 
HETATM    4  N3  UNL     1      29.046  -0.368  53.453  1.00  0.00    -0.244 NA
HETATM    5  C12 UNL     1      28.315   0.743  53.593  1.00  0.00     0.069 A 
HETATM    6  C13 UNL     1      26.950   0.660  53.474  1.00  0.00     0.062 A 
HETATM    7  C14 UNL     1      26.379   1.963  53.652  1.00  0.00     0.045 A 
HETATM    8  N4  UNL     1      27.465   2.844  53.885  1.00  0.00    -0.383 N 
HETATM    9  C22 UNL     1      28.708   2.142  53.878  1.00  0.00     0.180 A 
HETATM   10  H20 UNL     1      27.629   3.856  54.053  1.00  0.00     0.160 HD
ENDROOT
BRANCH   1  11
HETATM   11  N1  UNL     1      24.942  -0.740  53.101  1.00  0.00    -0.369 N 
HETATM   12  H12 UNL     1      24.471  -0.993  52.238  1.00  0.00     0.161 HD
BRANCH  11  13
HETATM   13  C2  UNL     1      24.027  -0.614  54.214  1.00  0.00     0.083 C 
HETATM   14  C1  UNL     1      24.553  -1.226  55.495  1.00  0.00     0.032 C 
BRANCH  13  15
HETATM   15  C3  UNL     1      22.618  -0.945  53.884  1.00  0.00     0.063 C 
BRANCH  15  16
HETATM   16  C4  UNL     1      21.849   0.065  53.142  1.00  0.00    -0.056 A 
HETATM   17  C5  UNL     1      21.755  -0.198  51.783  1.00  0.00     0.007 A 
HETATM   18  C6  UNL     1      21.059   0.611  50.905  1.00  0.00     0.001 A 
HETATM   19  C7  UNL     1      20.423   1.739  51.393  1.00  0.00     0.000 A 
HETATM   20  C8  UNL     1      20.506   2.017  52.745  1.00  0.00     0.001 A 
HETATM   21  C9  UNL     1      21.204   1.201  53.612  1.00  0.00     0.007 A 
ENDBRANCH  15  16
ENDBRANCH  13  15
ENDBRANCH  11  13
ENDBRANCH   1  11
BRANCH   7  22
HETATM   22  C15 UNL     1      25.147   2.417  53.604  1.00  0.00     0.041 C 
BRANCH  22  23
HETATM   23  C16 UNL     1      24.483   2.799  52.362  1.00  0.00    -0.034 A 
HETATM   24  C17 UNL     1      23.713   3.941  52.600  1.00  0.00     0.014 A 
HETATM   25  C18 UNL     1      22.978   4.556  51.582  1.00  0.00     0.037 A 
HETATM   26  C19 UNL     1      23.015   4.018  50.304  1.00  0.00     0.065 A 
HETATM   27  C20 UNL     1      23.769   2.892  50.052  1.00  0.00     0.037 A 
HETATM   28  C21 UNL     1      24.486   2.300  51.070  1.00  0.00     0.014 A 
BRANCH  26  29
HETATM   29  O1  UNL     1      22.345   4.510  49.192  1.00  0.00    -0.361 OA
HETATM   30  H17 UNL     1      21.714   5.303  49.264  1.00  0.00     0.217 HD
ENDBRANCH  26  29
ENDBRANCH  22  23
ENDBRANCH   7  22
TORSDOF 7
ENDMDL
MODEL 2
REMARK VINA RESULT:      -8.1      2.876      6.218
REMARK  7 active torsions:
REMARK  status: ('A' for Active; 'I' for Inactive)
REMARK    1  A    between atoms: C2_2  and  C3_3 
REMARK    2  A    between atoms: C2_2  and  N1_10 
REMARK    3  A    between atoms: C3_3  and  C4_4 
REMARK    4  A    between atoms: N1_10  and  C10_11 
REMARK    5  A    between atoms: C14_17  and  C15_18 
REMARK    6  A    between atoms: C15_18  and  C16_19 
REMARK    7  A    between atoms: C19_22  and  O1_23 
ROOT
HETATM    1  C10 UNL     1      22.652   0.722  52.428  1.00  0.00     0.139 A 
HETATM    2  N2  UNL     1      21.337   0.991  52.525  1.00  0.00    -0.224 NA
HETATM    3  C11 UNL     1      20.543   0.592  53.525  1.00  0.00     0.235 A 
HETATM    4  N3  UNL     1      21.118  -0.133  54.502  1.00  0.00    -0.244 NA
HETATM    5  C12 UNL     1      22.417  -0.447  54.487  1.00  0.00     0.069 A 
HETATM    6  C13 UNL     1      23.194  -0.016  53.440  1.00  0.00     0.062 A 
HETATM    7  C14 UNL     1      24.539  -0.472  53.629  1.00  0.00     0.045 A 
HETATM    8  N4  UNL     1      24.544  -1.203  54.844  1.00  0.00    -0.383 N 
HETATM    9  C22 UNL     1      23.249  -1.213  55.443  1.00  0.00     0.180 A 
HETATM   10  H20 UNL     1      25.211  -1.743  55.429  1.00  0.00     0.160 HD
ENDROOT
BRANCH   1  11
HETATM   11  N1  UNL     1      23.365   1.240  51.312  1.00  0.00    -0.369 N 
HETATM   12  H12 UNL     1      23.481   0.751  50.431  1.00  0.00     0.161 HD
BRANCH  11  13
HETATM   13  C2  UNL     1      24.002   2.539  51.313  1.00  0.00     0.083 C 
HETATM   14  C1  UNL     1      23.725   3.342  52.567  1.00  0.00     0.032 C 
BRANCH  13  15
HETATM   15  C3  UNL     1      23.863   3.285  50.037  1.00  0.00     0.063 C 
BRANCH  15  16
HETATM   16  C4  UNL     1      25.049   4.008  49.553  1.00  0.00    -0.056 A 
HETATM   17  C5  UNL     1      24.780   5.311  49.159  1.00  0.00     0.007 A 
HETATM   18  C6  UNL     1      25.754   6.173  48.692  1.00  0.00     0.001 A 
HETATM   19  C7  UNL     1      27.061   5.726  48.609  1.00  0.00     0.000 A 
HETATM   20  C8  UNL     1      27.347   4.430  48.997  1.00  0.00     0.001 A 
HETATM   21  C9  UNL     1      26.366   3.578  49.462  1.00  0.00     0.007 A 
ENDBRANCH  15  16
ENDBRANCH  13  15
ENDBRANCH  11  13
ENDBRANCH   1  11
BRANCH   7  22
HETATM   22  C15 UNL     1      25.635  -0.357  52.913  1.00  0.00     0.041 C 
BRANCH  22  23
HETATM   23  C16 UNL     1      26.732   0.539  53.265  1.00  0.00    -0.034 A 
HETATM   24  C17 UNL     1      27.574  -0.117  54.167  1.00  0.00     0.014 A 
HETATM   25  C18 UNL     1      28.732   0.489  54.664  1.00  0.00     0.037 A 
HETATM   26  C19 UNL     1      29.051   1.774  54.251  1.00  0.00     0.065 A 
HETATM   27  C20 UNL     1      28.231   2.435  53.362  1.00  0.00     0.037 A 
HETATM   28  C21 UNL     1      27.094   1.821  52.884  1.00  0.00     0.014 A 
BRANCH  26  29
HETATM   29  O1  UNL     1      30.159   2.508  54.652  1.00  0.00    -0.361 OA
HETATM   30  H17 UNL     1      30.974   2.604  54.051  1.00  0.00     0.217 HD
ENDBRANCH  26  29
ENDBRANCH  22  23
ENDBRANCH   7  22
TORSDOF 7
ENDMDL
MODEL 3
REMARK VINA RESULT:      -7.9      3.098      5.791
REMARK  7 active torsions:
REMARK  status: ('A' for Active; 'I' for Inactive)
REMARK    1  A    between atoms: C2_2  and  C3_3 
REMARK    2  A    between atoms: C2_2  and  N1_10 
REMARK    3  A    between atoms: C3_3  and  C4_4 
REMARK    4  A    between atoms: N1_10  and  C10_11 
REMARK    5  A    between atoms: C14_17  and  C15_18 
REMARK    6  A    between atoms: C15_18  and  C16_19 
REMARK    7  A    between atoms: C19_22  and  O1_23 
ROOT
HETATM    1  C10 UNL     1      27.142   1.713  52.475  1.00  0.00     0.139 A 
HETATM    2  N2  UNL     1      28.295   2.368  52.706  1.00  0.00    -0.224 NA
HETATM    3  C11 UNL     1      29.029   2.260  53.820  1.00  0.00     0.235 A 
HETATM    4  N3  UNL     1      28.566   1.429  54.772  1.00  0.00    -0.244 NA
HETATM    5  C12 UNL     1      27.430   0.741  54.627  1.00  0.00     0.069 A 
HETATM    6  C13 UNL     1      26.709   0.883  53.467  1.00  0.00     0.062 A 
HETATM    7  C14 UNL     1      25.536   0.062  53.535  1.00  0.00     0.045 A 
HETATM    8  N4  UNL     1      25.577  -0.587  54.794  1.00  0.00    -0.383 N 
HETATM    9  C22 UNL     1      26.747  -0.219  55.525  1.00  0.00     0.180 A 
HETATM   10  H20 UNL     1      25.002  -1.249  55.352  1.00  0.00     0.160 HD
ENDROOT
BRANCH   1  11
HETATM   11  N1  UNL     1      26.492   1.917  51.227  1.00  0.00    -0.369 N 
HETATM   12  H12 UNL     1      26.374   1.199  50.520  1.00  0.00     0.161 HD
BRANCH  11  13
HETATM   13  C2  UNL     1      25.916   3.184  50.832  1.00  0.00     0.083 C 
HETATM   14  C1  UNL     1      24.552   3.439  51.439  1.00  0.00     0.032 C 
BRANCH  13  15
HETATM   15  C3  UNL     1      26.029   3.477  49.381  1.00  0.00     0.063 C 
BRANCH  15  16
HETATM   16  C4  UNL     1      26.583   4.786  49.004  1.00  0.00    -0.056 A 
HETATM   17  C5  UNL     1      27.915   4.734  48.620  1.00  0.00     0.007 A 
HETATM   18  C6  UNL     1      28.625   5.846  48.206  1.00  0.00     0.001 A 
HETATM   19  C7  UNL     1      27.986   7.073  48.169  1.00  0.00     0.000 A 
HETATM   20  C8  UNL     1      26.658   7.143  48.548  1.00  0.00     0.001 A 
HETATM   21  C9  UNL     1      25.960   6.026  48.960  1.00  0.00     0.007 A 
ENDBRANCH  15  16
ENDBRANCH  13  15
ENDBRANCH  11  13
ENDBRANCH   1  11
BRANCH   7  22
HETATM   22  C15 UNL     1      24.527  -0.131  52.715  1.00  0.00     0.041 C 
BRANCH  22  23
HETATM   23  C16 UNL     1      23.160  -0.369  53.170  1.00  0.00    -0.034 A 
HETATM   24  C17 UNL     1      22.281   0.296  52.310  1.00  0.00     0.014 A 
HETATM   25  C18 UNL     1      20.895   0.228  52.482  1.00  0.00     0.037 A 
HETATM   26  C19 UNL     1      20.382  -0.519  53.531  1.00  0.00     0.065 A 
HETATM   27  C20 UNL     1      21.234  -1.180  54.388  1.00  0.00     0.037 A 
HETATM   28  C21 UNL     1      22.598  -1.101  54.203  1.00  0.00     0.014 A 
BRANCH  26  29
HETATM   29  O1  UNL     1      19.036  -0.684  53.834  1.00  0.00    -0.361 OA
HETATM   30  H17 UNL     1      18.696  -1.532  54.279  1.00  0.00     0.217 HD
ENDBRANCH  26  29
ENDBRANCH  22  23
ENDBRANCH   7  22
TORSDOF 7
ENDMDL
MODEL 4
REMARK VINA RESULT:      -7.8      3.046      6.917
REMARK  7 active torsions:
REMARK  status: ('A' for Active; 'I' for Inactive)
REMARK    1  A    between atoms: C2_2  and  C3_3 
REMARK    2  A    between atoms: C2_2  and  N1_10 
REMARK    3  A    between atoms: C3_3  and  C4_4 
REMARK    4  A    between atoms: N1_10  and  C10_11 
REMARK    5  A    between atoms: C14_17  and  C15_18 
REMARK    6  A    between atoms: C15_18  and  C16_19 
REMARK    7  A    between atoms: C19_22  and  O1_23 
ROOT
HETATM    1  C10 UNL     1      23.653   4.176  51.669  1.00  0.00     0.139 A 
HETATM    2  N2  UNL     1      23.755   5.518  51.674  1.00  0.00    -0.224 NA
HETATM    3  C11 UNL     1      22.755   6.364  51.400  1.00  0.00     0.235 A 
HETATM    4  N3  UNL     1      21.564   5.817  51.098  1.00  0.00    -0.244 NA
HETATM    5  C12 UNL     1      21.373   4.495  51.069  1.00  0.00     0.069 A 
HETATM    6  C13 UNL     1      22.427   3.664  51.358  1.00  0.00     0.062 A 
HETATM    7  C14 UNL     1      21.996   2.300  51.259  1.00  0.00     0.045 A 
HETATM    8  N4  UNL     1      20.627   2.341  50.897  1.00  0.00    -0.383 N 
HETATM    9  C22 UNL     1      20.166   3.687  50.776  1.00  0.00     0.180 A 
HETATM   10  H20 UNL     1      19.854   1.680  50.683  1.00  0.00     0.160 HD
ENDROOT
BRANCH   1  11
HETATM   11  N1  UNL     1      24.804   3.413  52.007  1.00  0.00    -0.369 N 
HETATM   12  H12 UNL     1      24.997   3.051  52.935  1.00  0.00     0.161 HD
BRANCH  11  13
HETATM   13  C2  UNL     1      25.831   3.062  51.050  1.00  0.00     0.083 C 
HETATM   14  C1  UNL     1      25.499   3.480  49.633  1.00  0.00     0.032 C 
BRANCH  13  15
HETATM   15  C3  UNL     1      26.354   1.680  51.198  1.00  0.00     0.063 C 
BRANCH  15  16
HETATM   16  C4  UNL     1      27.270   1.428  52.320  1.00  0.00    -0.056 A 
HETATM   17  C5  UNL     1      27.404   0.084  52.635  1.00  0.00     0.007 A 
HETATM   18  C6  UNL     1      28.232  -0.376  53.642  1.00  0.00     0.001 A 
HETATM   19  C7  UNL     1      28.966   0.538  54.376  1.00  0.00     0.000 A 
HETATM   20  C8  UNL     1      28.845   1.882  54.076  1.00  0.00     0.001 A 
HETATM   21  C9  UNL     1      28.014   2.330  53.069  1.00  0.00     0.007 A 
ENDBRANCH  15  16
ENDBRANCH  13  15
ENDBRANCH  11  13
ENDBRANCH   1  11
BRANCH   7  22
HETATM   22  C15 UNL     1      22.616   1.151  51.404  1.00  0.00     0.041 C 
BRANCH  22  23
HETATM   23  C16 UNL     1      22.533   0.344  52.618  1.00  0.00    -0.034 A 
HETATM   24  C17 UNL     1      23.830   0.038  53.041  1.00  0.00     0.014 A 
HETATM   25  C18 UNL     1      24.068  -0.708  54.200  1.00  0.00     0.037 A 
HETATM   26  C19 UNL     1      22.988  -1.153  54.947  1.00  0.00     0.065 A 
HETATM   27  C20 UNL     1      21.703  -0.861  54.545  1.00  0.00     0.037 A 
HETATM   28  C21 UNL     1      21.489  -0.126  53.399  1.00  0.00     0.014 A 
BRANCH  26  29
HETATM   29  O1  UNL     1      23.059  -1.900  56.116  1.00  0.00    -0.361 OA
HETATM   30  H17 UNL     1      23.747  -2.640  56.229  1.00  0.00     0.217 HD
ENDBRANCH  26  29
ENDBRANCH  22  23
ENDBRANCH   7  22
TORSDOF 7
ENDMDL
MODEL 5
REMARK VINA RESULT:      -7.6      3.121      5.729
REMARK  7 active torsions:
REMARK  status: ('A' for Active; 'I' for Inactive)
REMARK    1  A    between atoms: C2_2  and  C3_3 
REMARK    2  A    between atoms: C2_2  and  N1_10 
REMARK    3  A    between atoms: C3_3  and  C4_4 
REMARK    4  A    between atoms: N1_10  and  C10_11 
REMARK    5  A    between atoms: C14_17  and  C15_18 
REMARK    6  A    between atoms: C15_18  and  C16_19 
REMARK    7  A    between atoms: C19_22  and  O1_23 
ROOT
HETATM    1  C10 UNL     1      22.640   4.411  51.346  1.00  0.00     0.139 A 
HETATM    2  N2  UNL     1      21.772   5.425  51.518  1.00  0.00    -0.224 NA
HETATM    3  C11 UNL     1      22.033   6.711  51.258  1.00  0.00     0.235 A 
HETATM    4  N3  UNL     1      23.261   6.997  50.789  1.00  0.00    -0.244 NA
HETATM    5  C12 UNL     1      24.186   6.053  50.589  1.00  0.00     0.069 A 
HETATM    6  C13 UNL     1      23.873   4.746  50.869  1.00  0.00     0.062 A 
HETATM    7  C14 UNL     1      25.008   3.917  50.588  1.00  0.00     0.045 A 
HETATM    8  N4  UNL     1      26.028   4.783  50.122  1.00  0.00    -0.383 N 
HETATM    9  C22 UNL     1      25.575   6.137  50.082  1.00  0.00     0.180 A 
HETATM   10  H20 UNL     1      27.016   4.730  49.806  1.00  0.00     0.160 HD
ENDROOT
BRANCH   1  11
HETATM   11  N1  UNL     1      22.201   3.092  51.646  1.00  0.00    -0.369 N 
HETATM   12  H12 UNL     1      22.248   2.669  52.566  1.00  0.00     0.161 HD
BRANCH  11  13
HETATM   13  C2  UNL     1      21.629   2.204  50.657  1.00  0.00     0.083 C 
HETATM   14  C1  UNL     1      20.182   2.517  50.336  1.00  0.00     0.032 C 
BRANCH  13  15
HETATM   15  C3  UNL     1      21.932   0.768  50.881  1.00  0.00     0.063 C 
BRANCH  15  16
HETATM   16  C4  UNL     1      21.817   0.267  52.259  1.00  0.00    -0.056 A 
HETATM   17  C5  UNL     1      23.006  -0.235  52.767  1.00  0.00     0.007 A 
HETATM   18  C6  UNL     1      23.127  -0.736  54.050  1.00  0.00     0.001 A 
HETATM   19  C7  UNL     1      22.015  -0.742  54.874  1.00  0.00     0.000 A 
HETATM   20  C8  UNL     1      20.821  -0.246  54.384  1.00  0.00     0.001 A 
HETATM   21  C9  UNL     1      20.713   0.252  53.101  1.00  0.00     0.007 A 
ENDBRANCH  15  16
ENDBRANCH  13  15
ENDBRANCH  11  13
ENDBRANCH   1  11
BRANCH   7  22
HETATM   22  C15 UNL     1      25.232   2.628  50.714  1.00  0.00     0.041 C 
BRANCH  22  23
HETATM   23  C16 UNL     1      25.680   2.011  51.959  1.00  0.00    -0.034 A 
HETATM   24  C17 UNL     1      26.417   0.865  51.649  1.00  0.00     0.014 A 
HETATM   25  C18 UNL     1      27.000   0.075  52.646  1.00  0.00     0.037 A 
HETATM   26  C19 UNL     1      26.841   0.441  53.974  1.00  0.00     0.065 A 
HETATM   27  C20 UNL     1      26.116   1.568  54.297  1.00  0.00     0.037 A 
HETATM   28  C21 UNL     1      25.549   2.333  53.300  1.00  0.00     0.014 A 
BRANCH  26  29
HETATM   29  O1  UNL     1      27.355  -0.235  55.073  1.00  0.00    -0.361 OA
HETATM   30  H17 UNL     1      27.382   0.197  55.993  1.00  0.00     0.217 HD
ENDBRANCH  26  29
ENDBRANCH  22  23
ENDBRANCH   7  22
TORSDOF 7
ENDMDL
MODEL 6
REMARK VINA RESULT:      -7.6      3.506      6.865
REMARK  7 active torsions:
REMARK  status: ('A' for Active; 'I' for Inactive)
REMARK    1  A    between atoms: C2_2  and  C3_3 
REMARK    2  A    between atoms: C2_2  and  N1_10 
REMARK    3  A    between atoms: C3_3  and  C4_4 
REMARK    4  A    between atoms: N1_10  and  C10_11 
REMARK    5  A    between atoms: C14_17  and  C15_18 
REMARK    6  A    between atoms: C15_18  and  C16_19 
REMARK    7  A    between atoms: C19_22  and  O1_23 
ROOT
HETATM    1  C10 UNL     1      23.130   2.828  51.951  1.00  0.00     0.139 A 
HETATM    2  N2  UNL     1      21.938   3.448  52.040  1.00  0.00    -0.224 NA
HETATM    3  C11 UNL     1      20.837   2.919  52.585  1.00  0.00     0.235 A 
HETATM    4  N3  UNL     1      20.944   1.671  53.077  1.00  0.00    -0.244 NA
HETATM    5  C12 UNL     1      22.088   0.982  53.030  1.00  0.00     0.069 A 
HETATM    6  C13 UNL     1      23.193   1.564  52.462  1.00  0.00     0.062 A 
HETATM    7  C14 UNL     1      24.293   0.647  52.516  1.00  0.00     0.045 A 
HETATM    8  N4  UNL     1      23.803  -0.525  53.146  1.00  0.00    -0.383 N 
HETATM    9  C22 UNL     1      22.430  -0.377  53.510  1.00  0.00     0.180 A 
HETATM   10  H20 UNL     1      24.143  -1.468  53.417  1.00  0.00     0.160 HD
ENDROOT
BRANCH   1  11
HETATM   11  N1  UNL     1      24.214   3.535  51.365  1.00  0.00    -0.369 N 
HETATM   12  H12 UNL     1      24.902   4.065  51.890  1.00  0.00     0.161 HD
BRANCH  11  13
HETATM   13  C2  UNL     1      24.459   3.571  49.939  1.00  0.00     0.083 C 
HETATM   14  C1  UNL     1      23.493   2.718  49.144  1.00  0.00     0.032 C 
BRANCH  13  15
HETATM   15  C3  UNL     1      25.888   3.428  49.564  1.00  0.00     0.063 C 
BRANCH  15  16
HETATM   16  C4  UNL     1      26.560   4.619  49.022  1.00  0.00    -0.056 A 
HETATM   17  C5  UNL     1      25.722   5.717  48.893  1.00  0.00     0.007 A 
HETATM   18  C6  UNL     1      26.152   6.944  48.425  1.00  0.00     0.001 A 
HETATM   19  C7  UNL     1      27.480   7.095  48.065  1.00  0.00     0.000 A 
HETATM   20  C8  UNL     1      28.330   6.012  48.187  1.00  0.00     0.001 A 
HETATM   21  C9  UNL     1      27.888   4.791  48.656  1.00  0.00     0.007 A 
ENDBRANCH  15  16
ENDBRANCH  13  15
ENDBRANCH  11  13
ENDBRANCH   1  11
BRANCH   7  22
HETATM   22  C15 UNL     1      25.534   0.707  52.090  1.00  0.00     0.041 C 
BRANCH  22  23
HETATM   23  C16 UNL     1      26.674   0.942  52.971  1.00  0.00    -0.034 A 
HETATM   24  C17 UNL     1      27.317   2.116  52.567  1.00  0.00     0.014 A 
HETATM   25  C18 UNL     1      28.435   2.611  53.245  1.00  0.00     0.037 A 
HETATM   26  C19 UNL     1      28.916   1.919  54.346  1.00  0.00     0.065 A 
HETATM   27  C20 UNL     1      28.295   0.760  54.757  1.00  0.00     0.037 A 
HETATM   28  C21 UNL     1      27.194   0.287  54.075  1.00  0.00     0.014 A 
BRANCH  26  29
HETATM   29  O1  UNL     1      30.011   2.279  55.121  1.00  0.00    -0.361 OA
HETATM   30  H17 UNL     1      30.087   1.992  56.093  1.00  0.00     0.217 HD
ENDBRANCH  26  29
ENDBRANCH  22  23
ENDBRANCH   7  22
TORSDOF 7
ENDMDL
MODEL 7
REMARK VINA RESULT:      -7.5      1.913      5.712
REMARK  7 active torsions:
REMARK  status: ('A' for Active; 'I' for Inactive)
REMARK    1  A    between atoms: C2_2  and  C3_3 
REMARK    2  A    between atoms: C2_2  and  N1_10 
REMARK    3  A    between atoms: C3_3  and  C4_4 
REMARK    4  A    between atoms: N1_10  and  C10_11 
REMARK    5  A    between atoms: C14_17  and  C15_18 
REMARK    6  A    between atoms: C15_18  and  C16_19 
REMARK    7  A    between atoms: C19_22  and  O1_23 
ROOT
HETATM    1  C10 UNL     1      23.613  -0.201  53.378  1.00  0.00     0.139 A 
HETATM    2  N2  UNL     1      23.907  -0.890  54.496  1.00  0.00    -0.224 NA
HETATM    3  C11 UNL     1      23.005  -1.416  55.332  1.00  0.00     0.235 A 
HETATM    4  N3  UNL     1      21.709  -1.234  55.018  1.00  0.00    -0.244 NA
HETATM    5  C12 UNL     1      21.327  -0.561  53.928  1.00  0.00     0.069 A 
HETATM    6  C13 UNL     1      22.288  -0.039  53.098  1.00  0.00     0.062 A 
HETATM    7  C14 UNL     1      21.653   0.640  52.007  1.00  0.00     0.045 A 
HETATM    8  N4  UNL     1      20.257   0.505  52.213  1.00  0.00    -0.383 N 
HETATM    9  C22 UNL     1      19.982  -0.252  53.391  1.00  0.00     0.180 A 
HETATM   10  H20 UNL     1      19.369   0.801  51.764  1.00  0.00     0.160 HD
ENDROOT
BRANCH   1  11
HETATM   11  N1  UNL     1      24.689   0.274  52.579  1.00  0.00    -0.369 N 
HETATM   12  H12 UNL     1      24.841   0.012  51.611  1.00  0.00     0.161 HD
BRANCH  11  13
HETATM   13  C2  UNL     1      25.690   1.198  53.066  1.00  0.00     0.083 C 
HETATM   14  C1  UNL     1      26.427   1.923  51.959  1.00  0.00     0.032 C 
BRANCH  13  15
HETATM   15  C3  UNL     1      26.548   0.651  54.147  1.00  0.00     0.063 C 
BRANCH  15  16
HETATM   16  C4  UNL     1      27.546  -0.358  53.763  1.00  0.00    -0.056 A 
HETATM   17  C5  UNL     1      28.842  -0.023  54.129  1.00  0.00     0.007 A 
HETATM   18  C6  UNL     1      29.930  -0.840  53.884  1.00  0.00     0.001 A 
HETATM   19  C7  UNL     1      29.729  -2.050  53.243  1.00  0.00     0.000 A 
HETATM   20  C8  UNL     1      28.444  -2.399  52.871  1.00  0.00     0.001 A 
HETATM   21  C9  UNL     1      27.366  -1.576  53.121  1.00  0.00     0.007 A 
ENDBRANCH  15  16
ENDBRANCH  13  15
ENDBRANCH  11  13
ENDBRANCH   1  11
BRANCH   7  22
HETATM   22  C15 UNL     1      22.116   1.319  50.981  1.00  0.00     0.041 C 
BRANCH  22  23
HETATM   23  C16 UNL     1      22.830   2.585  51.115  1.00  0.00    -0.034 A 
HETATM   24  C17 UNL     1      23.508   2.844  49.920  1.00  0.00     0.014 A 
HETATM   25  C18 UNL     1      24.263   4.007  49.743  1.00  0.00     0.037 A 
HETATM   26  C19 UNL     1      24.339   4.926  50.778  1.00  0.00     0.065 A 
HETATM   27  C20 UNL     1      23.677   4.686  51.963  1.00  0.00     0.037 A 
HETATM   28  C21 UNL     1      22.938   3.533  52.119  1.00  0.00     0.014 A 
BRANCH  26  29
HETATM   29  O1  UNL     1      25.044   6.123  50.757  1.00  0.00    -0.361 OA
HETATM   30  H17 UNL     1      25.104   6.715  51.581  1.00  0.00     0.217 HD
ENDBRANCH  26  29
ENDBRANCH  22  23
ENDBRANCH   7  22
TORSDOF 7
ENDMDL
MODEL 8
REMARK VINA RESULT:      -7.4      2.982      6.428
REMARK  7 active torsions:
REMARK  status: ('A' for Active; 'I' for Inactive)
REMARK    1  A    between atoms: C2_2  and  C3_3 
REMARK    2  A    between atoms: C2_2  and  N1_10 
REMARK    3  A    between atoms: C3_3  and  C4_4 
REMARK    4  A    between atoms: N1_10  and  C10_11 
REMARK    5  A    between atoms: C14_17  and  C15_18 
REMARK    6  A    between atoms: C15_18  and  C16_19 
REMARK    7  A    between atoms: C19_22  and  O1_23 
ROOT
HETATM    1  C10 UNL     1      22.018   0.584  51.835  1.00  0.00     0.139 A 
HETATM    2  N2  UNL     1      20.678   0.471  51.794  1.00  0.00    -0.224 NA
HETATM    3  C11 UNL     1      19.931  -0.146  52.717  1.00  0.00     0.235 A 
HETATM    4  N3  UNL     1      20.584  -0.689  53.761  1.00  0.00    -0.244 NA
HETATM    5  C12 UNL     1      21.913  -0.624  53.882  1.00  0.00     0.069 A 
HETATM    6  C13 UNL     1      22.640   0.019  52.910  1.00  0.00     0.062 A 
HETATM    7  C14 UNL     1      24.032  -0.041  53.243  1.00  0.00     0.045 A 
HETATM    8  N4  UNL     1      24.119  -0.753  54.465  1.00  0.00    -0.383 N 
HETATM    9  C22 UNL     1      22.825  -1.134  54.932  1.00  0.00     0.180 A 
HETATM   10  H20 UNL     1      24.848  -1.089  55.125  1.00  0.00     0.160 HD
ENDROOT
BRANCH   1  11
HETATM   11  N1  UNL     1      22.666   1.293  50.787  1.00  0.00    -0.369 N 
HETATM   12  H12 UNL     1      23.456   0.937  50.259  1.00  0.00     0.161 HD
BRANCH  11  13
HETATM   13  C2  UNL     1      22.259   2.612  50.352  1.00  0.00     0.083 C 
HETATM   14  C1  UNL     1      21.933   2.682  48.875  1.00  0.00     0.032 C 
BRANCH  13  15
HETATM   15  C3  UNL     1      23.112   3.712  50.867  1.00  0.00     0.063 C 
BRANCH  15  16
HETATM   16  C4  UNL     1      24.435   3.880  50.247  1.00  0.00    -0.056 A 
HETATM   17  C5  UNL     1      24.622   5.127  49.670  1.00  0.00     0.007 A 
HETATM   18  C6  UNL     1      25.799   5.503  49.051  1.00  0.00     0.001 A 
HETATM   19  C7  UNL     1      26.847   4.601  49.000  1.00  0.00     0.000 A 
HETATM   20  C8  UNL     1      26.678   3.353  49.570  1.00  0.00     0.001 A 
HETATM   21  C9  UNL     1      25.497   2.989  50.185  1.00  0.00     0.007 A 
ENDBRANCH  15  16
ENDBRANCH  13  15
ENDBRANCH  11  13
ENDBRANCH   1  11
BRANCH   7  22
HETATM   22  C15 UNL     1      25.119   0.385  52.638  1.00  0.00     0.041 C 
BRANCH  22  23
HETATM   23  C16 UNL     1      26.443  -0.179  52.880  1.00  0.00    -0.034 A 
HETATM   24  C17 UNL     1      27.248   0.804  53.463  1.00  0.00     0.014 A 
HETATM   25  C18 UNL     1      28.571   0.545  53.834  1.00  0.00     0.037 A 
HETATM   26  C19 UNL     1      29.096  -0.720  53.616  1.00  0.00     0.065 A 
HETATM   27  C20 UNL     1      28.317  -1.700  53.041  1.00  0.00     0.037 A 
HETATM   28  C21 UNL     1      27.015  -1.425  52.682  1.00  0.00     0.014 A 
BRANCH  26  29
HETATM   29  O1  UNL     1      30.386  -1.132  53.926  1.00  0.00    -0.361 OA
HETATM   30  H17 UNL     1      30.828  -0.867  54.802  1.00  0.00     0.217 HD
ENDBRANCH  26  29
ENDBRANCH  22  23
ENDBRANCH   7  22
TORSDOF 7
ENDMDL
MODEL 9
REMARK VINA RESULT:      -7.2      1.674      3.065
REMARK  7 active torsions:
REMARK  status: ('A' for Active; 'I' for Inactive)
REMARK    1  A    between atoms: C2_2  and  C3_3 
REMARK    2  A    between atoms: C2_2  and  N1_10 
REMARK    3  A    between atoms: C3_3  and  C4_4 
REMARK    4  A    between atoms: N1_10  and  C10_11 
REMARK    5  A    between atoms: C14_17  and  C15_18 
REMARK    6  A    between atoms: C15_18  and  C16_19 
REMARK    7  A    between atoms: C19_22  and  O1_23 
ROOT
HETATM    1  C10 UNL     1      23.477  -0.562  53.754  1.00  0.00     0.139 A 
HETATM    2  N2  UNL     1      23.385  -1.350  54.841  1.00  0.00    -0.224 NA
HETATM    3  C11 UNL     1      24.340  -1.497  55.766  1.00  0.00     0.235 A 
HETATM    4  N3  UNL     1      25.474  -0.796  55.581  1.00  0.00    -0.244 NA
HETATM    5  C12 UNL     1      25.652   0.010  54.530  1.00  0.00     0.069 A 
HETATM    6  C13 UNL     1      24.644   0.130  53.606  1.00  0.00     0.062 A 
HETATM    7  C14 UNL     1      25.054   1.033  52.571  1.00  0.00     0.045 A 
HETATM    8  N4  UNL     1      26.363   1.458  52.911  1.00  0.00    -0.383 N 
HETATM    9  C22 UNL     1      26.794   0.867  54.137  1.00  0.00     0.180 A 
HETATM   10  H20 UNL     1      27.111   2.069  52.528  1.00  0.00     0.160 HD
ENDROOT
BRANCH   1  11
HETATM   11  N1  UNL     1      22.361  -0.495  52.875  1.00  0.00    -0.369 N 
HETATM   12  H12 UNL     1      22.223  -1.108  52.079  1.00  0.00     0.161 HD
BRANCH  11  13
HETATM   13  C2  UNL     1      21.289   0.464  53.028  1.00  0.00     0.083 C 
HETATM   14  C1  UNL     1      20.750   0.540  54.441  1.00  0.00     0.032 C 
BRANCH  13  15
HETATM   15  C3  UNL     1      20.260   0.402  51.959  1.00  0.00     0.063 C 
BRANCH  15  16
HETATM   16  C4  UNL     1      20.585   1.050  50.680  1.00  0.00    -0.056 A 
HETATM   17  C5  UNL     1      20.001   2.299  50.527  1.00  0.00     0.007 A 
HETATM   18  C6  UNL     1      20.192   3.089  49.410  1.00  0.00     0.001 A 
HETATM   19  C7  UNL     1      21.003   2.623  48.390  1.00  0.00     0.000 A 
HETATM   20  C8  UNL     1      21.593   1.381  48.525  1.00  0.00     0.001 A 
HETATM   21  C9  UNL     1      21.395   0.600  49.646  1.00  0.00     0.007 A 
ENDBRANCH  15  16
ENDBRANCH  13  15
ENDBRANCH  11  13
ENDBRANCH   1  11
BRANCH   7  22
HETATM   22  C15 UNL     1      24.481   1.452  51.466  1.00  0.00     0.041 C 
BRANCH  22  23
HETATM   23  C16 UNL     1      23.896   2.781  51.321  1.00  0.00    -0.034 A 
HETATM   24  C17 UNL     1      24.291   3.311  50.089  1.00  0.00     0.014 A 
HETATM   25  C18 UNL     1      23.860   4.571  49.660  1.00  0.00     0.037 A 
HETATM   26  C19 UNL     1      23.021   5.311  50.479  1.00  0.00     0.065 A 
HETATM   27  C20 UNL     1      22.623   4.804  51.697  1.00  0.00     0.037 A 
HETATM   28  C21 UNL     1      23.058   3.560  52.102  1.00  0.00     0.014 A 
BRANCH  26  29
HETATM   29  O1  UNL     1      22.510   6.571  50.198  1.00  0.00    -0.361 OA
HETATM   30  H17 UNL     1      21.689   6.688  49.610  1.00  0.00     0.217 HD
ENDBRANCH  26  29
ENDBRANCH  22  23
ENDBRANCH   7  22
TORSDOF 7
ENDMDL
