MODEL 1
REMARK VINA RESULT:      -7.5      0.000      0.000
REMARK  4 active torsions:
REMARK  status: ('A' for Active; 'I' for Inactive)
REMARK    1  A    between atoms: C1_2  and  N1_3 
REMARK    2  A    between atoms: N1_3  and  C2_4 
REMARK    3  A    between atoms: C7_11  and  N4_12 
REMARK    4  A    between atoms: N4_12  and  C8_13 
ROOT
HETATM    1  C2  UNL     1      26.496   0.608  54.218  1.00  0.00     0.035 A 
HETATM    2  C3  UNL     1      25.592  -0.387  54.563  1.00  0.00     0.032 A 
HETATM    3  C4  UNL     1      24.334  -0.430  53.953  1.00  0.00     0.035 A 
HETATM    4  C5  UNL     1      24.012   0.523  53.012  1.00  0.00     0.072 A 
HETATM    5  N2  UNL     1      22.810   0.482  52.428  1.00  0.00    -0.241 NA
HETATM    6  C6  UNL     1      22.529   1.435  51.510  1.00  0.00     0.235 A 
HETATM    7  N3  UNL     1      23.411   2.418  51.163  1.00  0.00    -0.224 NA
HETATM    8  C7  UNL     1      24.630   2.497  51.723  1.00  0.00     0.138 A 
HETATM    9  C13 UNL     1      24.898   1.518  52.657  1.00  0.00     0.041 A 
HETATM   10  C14 UNL     1      26.132   1.542  53.271  1.00  0.00     0.047 A 
ENDROOT
BRANCH   8  11
HETATM   11  N4  UNL     1      25.503   3.532  51.329  1.00  0.00    -0.362 N 
HETATM   12  H6  UNL     1      26.183   4.045  51.918  1.00  0.00     0.162 HD
BRANCH  11  13
HETATM   13  C8  UNL     1      25.440   3.927  49.934  1.00  0.00     0.146 A 
HETATM   14  C9  UNL     1      26.754   3.636  49.259  1.00  0.00     0.003 A 
HETATM   15  C10 UNL     1      27.321   4.750  48.822  1.00  0.00    -0.001 A 
HETATM   16  C11 UNL     1      26.448   5.891  49.158  1.00  0.00     0.017 A 
HETATM   17  C12 UNL     1      25.392   5.400  49.786  1.00  0.00     0.015 A 
HETATM   18 BR1  UNL     1      23.969   6.531  50.420  1.00  0.00    -0.053 Br
ENDBRANCH  11  13
ENDBRANCH   8  11
BRANCH   1  19
HETATM   19  N1  UNL     1      27.769   0.631  54.852  1.00  0.00    -0.334 N 
HETATM   20  H2  UNL     1      27.584   0.099  55.728  1.00  0.00     0.168 HD
BRANCH  19  21
HETATM   21  C1  UNL     1      29.048   1.176  54.534  1.00  0.00     0.353 C 
HETATM   22  O1  UNL     1      29.436   2.331  54.847  1.00  0.00    -0.283 OA
ENDBRANCH  19  21
ENDBRANCH   1  19
TORSDOF 4
ENDMDL
MODEL 2
REMARK VINA RESULT:      -7.3      2.560      4.100
REMARK  4 active torsions:
REMARK  status: ('A' for Active; 'I' for Inactive)
REMARK    1  A    between atoms: C1_2  and  N1_3 
REMARK    2  A    between atoms: N1_3  and  C2_4 
REMARK    3  A    between atoms: C7_11  and  N4_12 
REMARK    4  A    between atoms: N4_12  and  C8_13 
ROOT
HETATM    1  C2  UNL     1      24.242  -0.297  53.551  1.00  0.00     0.035 A 
HETATM    2  C3  UNL     1      24.902  -0.684  54.708  1.00  0.00     0.032 A 
HETATM    3  C4  UNL     1      26.174  -0.173  54.990  1.00  0.00     0.035 A 
HETATM    4  C5  UNL     1      26.752   0.713  54.108  1.00  0.00     0.072 A 
HETATM    5  N2  UNL     1      27.966   1.202  54.378  1.00  0.00    -0.241 NA
HETATM    6  C6  UNL     1      28.502   2.070  53.488  1.00  0.00     0.235 A 
HETATM    7  N3  UNL     1      27.860   2.457  52.347  1.00  0.00    -0.224 NA
HETATM    8  C7  UNL     1      26.639   1.991  52.036  1.00  0.00     0.138 A 
HETATM    9  C13 UNL     1      26.109   1.109  52.955  1.00  0.00     0.041 A 
HETATM   10  C14 UNL     1      24.858   0.592  52.696  1.00  0.00     0.047 A 
ENDROOT
BRANCH   8  11
HETATM   11  N4  UNL     1      26.020   2.424  50.846  1.00  0.00    -0.362 N 
HETATM   12  H6  UNL     1      25.897   1.891  49.966  1.00  0.00     0.162 HD
BRANCH  11  13
HETATM   13  C8  UNL     1      25.495   3.777  50.851  1.00  0.00     0.146 A 
HETATM   14  C9  UNL     1      23.991   3.743  50.882  1.00  0.00     0.003 A 
HETATM   15  C10 UNL     1      23.479   4.298  49.794  1.00  0.00    -0.001 A 
HETATM   16  C11 UNL     1      24.583   4.756  48.931  1.00  0.00     0.017 A 
HETATM   17  C12 UNL     1      25.713   4.451  49.550  1.00  0.00     0.015 A 
HETATM   18 BR1  UNL     1      27.432   4.863  48.789  1.00  0.00    -0.053 Br
ENDBRANCH  11  13
ENDBRANCH   8  11
BRANCH   1  19
HETATM   19  N1  UNL     1      22.950  -0.830  53.285  1.00  0.00    -0.334 N 
HETATM   20  H2  UNL     1      22.757  -0.462  52.330  1.00  0.00     0.168 HD
BRANCH  19  21
HETATM   21  C1  UNL     1      22.029  -1.654  53.997  1.00  0.00     0.353 C 
HETATM   22  O1  UNL     1      21.438  -1.322  55.056  1.00  0.00    -0.283 OA
ENDBRANCH  19  21
ENDBRANCH   1  19
TORSDOF 4
ENDMDL
MODEL 3
REMARK VINA RESULT:      -7.2      4.470      6.011
REMARK  4 active torsions:
REMARK  status: ('A' for Active; 'I' for Inactive)
REMARK    1  A    between atoms: C1_2  and  N1_3 
REMARK    2  A    between atoms: N1_3  and  C2_4 
REMARK    3  A    between atoms: C7_11  and  N4_12 
REMARK    4  A    between atoms: N4_12  and  C8_13 
ROOT
HETATM    1  C2  UNL     1      22.219   0.545  51.794  1.00  0.00     0.035 A 
HETATM    2  C3  UNL     1      21.080   0.155  52.482  1.00  0.00     0.032 A 
HETATM    3  C4  UNL     1      21.197  -0.492  53.718  1.00  0.00     0.035 A 
HETATM    4  C5  UNL     1      22.453  -0.732  54.232  1.00  0.00     0.072 A 
HETATM    5  N2  UNL     1      22.565  -1.350  55.412  1.00  0.00    -0.241 NA
HETATM    6  C6  UNL     1      23.814  -1.570  55.885  1.00  0.00     0.235 A 
HETATM    7  N3  UNL     1      24.941  -1.190  55.215  1.00  0.00    -0.224 NA
HETATM    8  C7  UNL     1      24.875  -0.566  54.027  1.00  0.00     0.138 A 
HETATM    9  C13 UNL     1      23.594  -0.351  53.561  1.00  0.00     0.041 A 
HETATM   10  C14 UNL     1      23.455   0.285  52.346  1.00  0.00     0.047 A 
ENDROOT
BRANCH   8  11
HETATM   11  N4  UNL     1      26.070  -0.194  53.377  1.00  0.00    -0.362 N 
HETATM   12  H6  UNL     1      26.302  -0.295  52.373  1.00  0.00     0.162 HD
BRANCH  11  13
HETATM   13  C8  UNL     1      27.098   0.397  54.214  1.00  0.00     0.146 A 
HETATM   14  C9  UNL     1      27.023   1.898  54.135  1.00  0.00     0.003 A 
HETATM   15  C10 UNL     1      28.135   2.404  53.623  1.00  0.00    -0.001 A 
HETATM   16  C11 UNL     1      29.059   1.298  53.311  1.00  0.00     0.017 A 
HETATM   17  C12 UNL     1      28.451   0.174  53.654  1.00  0.00     0.015 A 
HETATM   18 BR1  UNL     1      29.287  -1.545  53.425  1.00  0.00    -0.053 Br
ENDBRANCH  11  13
ENDBRANCH   8  11
BRANCH   1  19
HETATM   19  N1  UNL     1      22.074   1.201  50.540  1.00  0.00    -0.334 N 
HETATM   20  H2  UNL     1      22.829   1.918  50.582  1.00  0.00     0.168 HD
BRANCH  19  21
HETATM   21  C1  UNL     1      21.206   1.059  49.418  1.00  0.00     0.353 C 
HETATM   22  O1  UNL     1      21.584   0.848  48.237  1.00  0.00    -0.283 OA
ENDBRANCH  19  21
ENDBRANCH   1  19
TORSDOF 4
ENDMDL
MODEL 4
REMARK VINA RESULT:      -7.1      2.536      5.477
REMARK  4 active torsions:
REMARK  status: ('A' for Active; 'I' for Inactive)
REMARK    1  A    between atoms: C1_2  and  N1_3 
REMARK    2  A    between atoms: N1_3  and  C2_4 
REMARK    3  A    between atoms: C7_11  and  N4_12 
REMARK    4  A    between atoms: N4_12  and  C8_13 
ROOT
HETATM    1  C2  UNL     1      26.343   2.822  51.420  1.00  0.00     0.035 A 
HETATM    2  C3  UNL     1      26.421   3.379  50.152  1.00  0.00     0.032 A 
HETATM    3  C4  UNL     1      25.277   3.451  49.349  1.00  0.00     0.035 A 
HETATM    4  C5  UNL     1      24.084   2.963  49.836  1.00  0.00     0.072 A 
HETATM    5  N2  UNL     1      22.991   3.032  49.069  1.00  0.00    -0.241 NA
HETATM    6  C6  UNL     1      21.838   2.543  49.581  1.00  0.00     0.235 A 
HETATM    7  N3  UNL     1      21.751   1.992  50.827  1.00  0.00    -0.224 NA
HETATM    8  C7  UNL     1      22.823   1.903  51.632  1.00  0.00     0.138 A 
HETATM    9  C13 UNL     1      23.989   2.407  51.094  1.00  0.00     0.041 A 
HETATM   10  C14 UNL     1      25.128   2.346  51.867  1.00  0.00     0.047 A 
ENDROOT
BRANCH   8  11
HETATM   11  N4  UNL     1      22.678   1.326  52.910  1.00  0.00    -0.362 N 
HETATM   12  H6  UNL     1      22.640   1.813  53.824  1.00  0.00     0.162 HD
BRANCH  11  13
HETATM   13  C8  UNL     1      22.571  -0.120  52.953  1.00  0.00     0.146 A 
HETATM   14  C9  UNL     1      21.186  -0.520  53.383  1.00  0.00     0.003 A 
HETATM   15  C10 UNL     1      21.217  -1.190  54.526  1.00  0.00    -0.001 A 
HETATM   16  C11 UNL     1      22.618  -1.305  54.970  1.00  0.00     0.017 A 
HETATM   17  C12 UNL     1      23.365  -0.693  54.065  1.00  0.00     0.015 A 
HETATM   18 BR1  UNL     1      25.280  -0.588  54.229  1.00  0.00    -0.053 Br
ENDBRANCH  11  13
ENDBRANCH   8  11
BRANCH   1  19
HETATM   19  N1  UNL     1      27.519   2.760  52.218  1.00  0.00    -0.334 N 
HETATM   20  H2  UNL     1      28.192   3.320  51.654  1.00  0.00     0.168 HD
BRANCH  19  21
HETATM   21  C1  UNL     1      27.868   2.155  53.461  1.00  0.00     0.353 C 
HETATM   22  O1  UNL     1      28.779   2.559  54.227  1.00  0.00    -0.283 OA
ENDBRANCH  19  21
ENDBRANCH   1  19
TORSDOF 4
ENDMDL
MODEL 5
REMARK VINA RESULT:      -7.0      2.680      4.171
REMARK  4 active torsions:
REMARK  status: ('A' for Active; 'I' for Inactive)
REMARK    1  A    between atoms: C1_2  and  N1_3 
REMARK    2  A    between atoms: N1_3  and  C2_4 
REMARK    3  A    between atoms: C7_11  and  N4_12 
REMARK    4  A    between atoms: N4_12  and  C8_13 
ROOT
HETATM    1  C2  UNL     1      22.168   0.644  53.486  1.00  0.00     0.035 A 
HETATM    2  C3  UNL     1      22.407  -0.549  54.151  1.00  0.00     0.032 A 
HETATM    3  C4  UNL     1      23.721  -0.996  54.334  1.00  0.00     0.035 A 
HETATM    4  C5  UNL     1      24.762  -0.237  53.845  1.00  0.00     0.072 A 
HETATM    5  N2  UNL     1      26.016  -0.664  54.019  1.00  0.00    -0.241 NA
HETATM    6  C6  UNL     1      27.012   0.108  53.526  1.00  0.00     0.235 A 
HETATM    7  N3  UNL     1      26.787   1.284  52.869  1.00  0.00    -0.224 NA
HETATM    8  C7  UNL     1      25.543   1.751  52.672  1.00  0.00     0.138 A 
HETATM    9  C13 UNL     1      24.541   0.951  53.182  1.00  0.00     0.041 A 
HETATM   10  C14 UNL     1      23.240   1.372  53.013  1.00  0.00     0.047 A 
ENDROOT
BRANCH   8  11
HETATM   11  N4  UNL     1      25.366   2.971  51.988  1.00  0.00    -0.362 N 
HETATM   12  H6  UNL     1      25.232   3.913  52.398  1.00  0.00     0.162 HD
BRANCH  11  13
HETATM   13  C8  UNL     1      25.371   2.900  50.538  1.00  0.00     0.146 A 
HETATM   14  C9  UNL     1      26.689   3.394  50.005  1.00  0.00     0.003 A 
HETATM   15  C10 UNL     1      26.524   4.472  49.252  1.00  0.00    -0.001 A 
HETATM   16  C11 UNL     1      25.088   4.804  49.207  1.00  0.00     0.017 A 
HETATM   17  C12 UNL     1      24.457   3.902  49.941  1.00  0.00     0.015 A 
HETATM   18 BR1  UNL     1      22.546   3.937  50.174  1.00  0.00    -0.053 Br
ENDBRANCH  11  13
ENDBRANCH   8  11
BRANCH   1  19
HETATM   19  N1  UNL     1      20.824   1.078  53.312  1.00  0.00    -0.334 N 
HETATM   20  H2  UNL     1      20.322   0.520  54.034  1.00  0.00     0.168 HD
BRANCH  19  21
HETATM   21  C1  UNL     1      20.162   2.003  52.451  1.00  0.00     0.353 C 
HETATM   22  O1  UNL     1      19.962   3.215  52.717  1.00  0.00    -0.283 OA
ENDBRANCH  19  21
ENDBRANCH   1  19
TORSDOF 4
ENDMDL
MODEL 6
REMARK VINA RESULT:      -6.9      3.546      5.087
REMARK  4 active torsions:
REMARK  status: ('A' for Active; 'I' for Inactive)
REMARK    1  A    between atoms: C1_2  and  N1_3 
REMARK    2  A    between atoms: N1_3  and  C2_4 
REMARK    3  A    between atoms: C7_11  and  N4_12 
REMARK    4  A    between atoms: N4_12  and  C8_13 
ROOT
HETATM    1  C2  UNL     1      21.467  -0.357  54.147  1.00  0.00     0.035 A 
HETATM    2  C3  UNL     1      21.935  -1.266  55.085  1.00  0.00     0.032 A 
HETATM    3  C4  UNL     1      23.311  -1.475  55.229  1.00  0.00     0.035 A 
HETATM    4  C5  UNL     1      24.184  -0.769  54.430  1.00  0.00     0.072 A 
HETATM    5  N2  UNL     1      25.498  -0.968  54.568  1.00  0.00    -0.241 NA
HETATM    6  C6  UNL     1      26.324  -0.257  53.766  1.00  0.00     0.235 A 
HETATM    7  N3  UNL     1      25.874   0.639  52.840  1.00  0.00    -0.224 NA
HETATM    8  C7  UNL     1      24.561   0.871  52.668  1.00  0.00     0.138 A 
HETATM    9  C13 UNL     1      23.735   0.138  53.494  1.00  0.00     0.041 A 
HETATM   10  C14 UNL     1      22.375   0.327  53.368  1.00  0.00     0.047 A 
ENDROOT
BRANCH   8  11
HETATM   11  N4  UNL     1      24.149   1.807  51.697  1.00  0.00    -0.362 N 
HETATM   12  H6  UNL     1      23.629   1.623  50.821  1.00  0.00     0.162 HD
BRANCH  11  13
HETATM   13  C8  UNL     1      24.497   3.192  51.955  1.00  0.00     0.146 A 
HETATM   14  C9  UNL     1      23.261   3.974  52.312  1.00  0.00     0.003 A 
HETATM   15  C10 UNL     1      23.029   4.929  51.424  1.00  0.00    -0.001 A 
HETATM   16  C11 UNL     1      24.080   4.882  50.391  1.00  0.00     0.017 A 
HETATM   17  C12 UNL     1      24.898   3.893  50.713  1.00  0.00     0.015 A 
HETATM   18 BR1  UNL     1      26.434   3.455  49.639  1.00  0.00    -0.053 Br
ENDBRANCH  11  13
ENDBRANCH   8  11
BRANCH   1  19
HETATM   19  N1  UNL     1      20.063  -0.162  54.019  1.00  0.00    -0.334 N 
HETATM   20  H2  UNL     1      19.888   0.603  54.703  1.00  0.00     0.168 HD
BRANCH  19  21
HETATM   21  C1  UNL     1      19.028  -0.748  53.232  1.00  0.00     0.353 C 
HETATM   22  O1  UNL     1      17.833  -0.882  53.601  1.00  0.00    -0.283 OA
ENDBRANCH  19  21
ENDBRANCH   1  19
TORSDOF 4
ENDMDL
MODEL 7
REMARK VINA RESULT:      -6.9      2.360      3.268
REMARK  4 active torsions:
REMARK  status: ('A' for Active; 'I' for Inactive)
REMARK    1  A    between atoms: C1_2  and  N1_3 
REMARK    2  A    between atoms: N1_3  and  C2_4 
REMARK    3  A    between atoms: C7_11  and  N4_12 
REMARK    4  A    between atoms: N4_12  and  C8_13 
ROOT
HETATM    1  C2  UNL     1      23.903  -0.775  54.284  1.00  0.00     0.035 A 
HETATM    2  C3  UNL     1      22.963  -1.317  55.148  1.00  0.00     0.032 A 
HETATM    3  C4  UNL     1      21.600  -1.223  54.846  1.00  0.00     0.035 A 
HETATM    4  C5  UNL     1      21.213  -0.589  53.685  1.00  0.00     0.072 A 
HETATM    5  N2  UNL     1      19.911  -0.499  53.396  1.00  0.00    -0.241 NA
HETATM    6  C6  UNL     1      19.569   0.131  52.248  1.00  0.00     0.235 A 
HETATM    7  N3  UNL     1      20.486   0.668  51.392  1.00  0.00    -0.224 NA
HETATM    8  C7  UNL     1      21.805   0.601  51.642  1.00  0.00     0.138 A 
HETATM    9  C13 UNL     1      22.135  -0.045  52.816  1.00  0.00     0.041 A 
HETATM   10  C14 UNL     1      23.471  -0.148  53.134  1.00  0.00     0.047 A 
ENDROOT
BRANCH   8  11
HETATM   11  N4  UNL     1      22.710   1.171  50.724  1.00  0.00    -0.362 N 
HETATM   12  H6  UNL     1      23.424   0.683  50.154  1.00  0.00     0.162 HD
BRANCH  11  13
HETATM   13  C8  UNL     1      22.633   2.610  50.557  1.00  0.00     0.146 A 
HETATM   14  C9  UNL     1      22.839   2.971  49.111  1.00  0.00     0.003 A 
HETATM   15  C10 UNL     1      23.923   3.715  48.956  1.00  0.00    -0.001 A 
HETATM   16  C11 UNL     1      24.547   3.926  50.275  1.00  0.00     0.017 A 
HETATM   17  C12 UNL     1      23.800   3.292  51.164  1.00  0.00     0.015 A 
HETATM   18 BR1  UNL     1      24.233   3.290  53.040  1.00  0.00    -0.053 Br
ENDBRANCH  11  13
ENDBRANCH   8  11
BRANCH   1  19
HETATM   19  N1  UNL     1      25.283  -0.882  54.613  1.00  0.00    -0.334 N 
HETATM   20  H2  UNL     1      25.327  -1.823  55.058  1.00  0.00     0.168 HD
BRANCH  19  21
HETATM   21  C1  UNL     1      26.429  -0.048  54.457  1.00  0.00     0.353 C 
HETATM   22  O1  UNL     1      26.593   1.062  55.025  1.00  0.00    -0.283 OA
ENDBRANCH  19  21
ENDBRANCH   1  19
TORSDOF 4
ENDMDL
MODEL 8
REMARK VINA RESULT:      -6.7      2.384      5.221
REMARK  4 active torsions:
REMARK  status: ('A' for Active; 'I' for Inactive)
REMARK    1  A    between atoms: C1_2  and  N1_3 
REMARK    2  A    between atoms: N1_3  and  C2_4 
REMARK    3  A    between atoms: C7_11  and  N4_12 
REMARK    4  A    between atoms: N4_12  and  C8_13 
ROOT
HETATM    1  C2  UNL     1      26.588   2.195  52.210  1.00  0.00     0.035 A 
HETATM    2  C3  UNL     1      27.620   1.928  53.098  1.00  0.00     0.032 A 
HETATM    3  C4  UNL     1      27.431   1.003  54.131  1.00  0.00     0.035 A 
HETATM    4  C5  UNL     1      26.213   0.369  54.249  1.00  0.00     0.072 A 
HETATM    5  N2  UNL     1      26.033  -0.515  55.235  1.00  0.00    -0.241 NA
HETATM    6  C6  UNL     1      24.824  -1.118  55.320  1.00  0.00     0.235 A 
HETATM    7  N3  UNL     1      23.802  -0.861  54.452  1.00  0.00    -0.224 NA
HETATM    8  C7  UNL     1      23.939   0.019  53.446  1.00  0.00     0.138 A 
HETATM    9  C13 UNL     1      25.178   0.623  53.375  1.00  0.00     0.041 A 
HETATM   10  C14 UNL     1      25.386   1.538  52.366  1.00  0.00     0.047 A 
ENDROOT
BRANCH   8  11
HETATM   11  N4  UNL     1      22.853   0.246  52.577  1.00  0.00    -0.362 N 
HETATM   12  H6  UNL     1      22.798   0.039  51.563  1.00  0.00     0.162 HD
BRANCH  11  13
HETATM   13  C8  UNL     1      21.670   0.842  53.171  1.00  0.00     0.146 A 
HETATM   14  C9  UNL     1      20.508  -0.108  53.065  1.00  0.00     0.003 A 
HETATM   15  C10 UNL     1      19.538   0.407  52.325  1.00  0.00    -0.001 A 
HETATM   16  C11 UNL     1      19.952   1.746  51.865  1.00  0.00     0.017 A 
HETATM   17  C12 UNL     1      21.160   1.969  52.356  1.00  0.00     0.015 A 
HETATM   18 BR1  UNL     1      22.109   3.609  52.014  1.00  0.00    -0.053 Br
ENDBRANCH  11  13
ENDBRANCH   8  11
BRANCH   1  19
HETATM   19  N1  UNL     1      26.803   3.140  51.169  1.00  0.00    -0.334 N 
HETATM   20  H2  UNL     1      27.828   3.315  51.244  1.00  0.00     0.168 HD
BRANCH  19  21
HETATM   21  C1  UNL     1      25.980   3.780  50.197  1.00  0.00     0.353 C 
HETATM   22  O1  UNL     1      25.274   4.799  50.411  1.00  0.00    -0.283 OA
ENDBRANCH  19  21
ENDBRANCH   1  19
TORSDOF 4
ENDMDL
MODEL 9
REMARK VINA RESULT:      -6.7      2.079      2.593
REMARK  4 active torsions:
REMARK  status: ('A' for Active; 'I' for Inactive)
REMARK    1  A    between atoms: C1_2  and  N1_3 
REMARK    2  A    between atoms: N1_3  and  C2_4 
REMARK    3  A    between atoms: C7_11  and  N4_12 
REMARK    4  A    between atoms: N4_12  and  C8_13 
ROOT
HETATM    1  C2  UNL     1      26.665   1.006  53.159  1.00  0.00     0.035 A 
HETATM    2  C3  UNL     1      26.610  -0.152  53.920  1.00  0.00     0.032 A 
HETATM    3  C4  UNL     1      25.378  -0.772  54.162  1.00  0.00     0.035 A 
HETATM    4  C5  UNL     1      24.233  -0.215  53.636  1.00  0.00     0.072 A 
HETATM    5  N2  UNL     1      23.057  -0.807  53.866  1.00  0.00    -0.241 NA
HETATM    6  C6  UNL     1      21.954  -0.231  53.334  1.00  0.00     0.235 A 
HETATM    7  N3  UNL     1      21.997   0.908  52.583  1.00  0.00    -0.224 NA
HETATM    8  C7  UNL     1      23.158   1.536  52.326  1.00  0.00     0.138 A 
HETATM    9  C13 UNL     1      24.271   0.935  52.877  1.00  0.00     0.041 A 
HETATM   10  C14 UNL     1      25.494   1.529  52.652  1.00  0.00     0.047 A 
ENDROOT
BRANCH   8  11
HETATM   11  N4  UNL     1      23.147   2.710  51.545  1.00  0.00    -0.362 N 
HETATM   12  H6  UNL     1      22.779   3.642  51.809  1.00  0.00     0.162 HD
BRANCH  11  13
HETATM   13  C8  UNL     1      23.715   2.600  50.214  1.00  0.00     0.146 A 
HETATM   14  C9  UNL     1      24.448   3.867  49.863  1.00  0.00     0.003 A 
HETATM   15  C10 UNL     1      23.896   4.462  48.817  1.00  0.00    -0.001 A 
HETATM   16  C11 UNL     1      22.745   3.658  48.366  1.00  0.00     0.017 A 
HETATM   17  C12 UNL     1      22.663   2.611  49.171  1.00  0.00     0.015 A 
HETATM   18 BR1  UNL     1      21.297   1.271  48.960  1.00  0.00    -0.053 Br
ENDBRANCH  11  13
ENDBRANCH   8  11
BRANCH   1  19
HETATM   19  N1  UNL     1      27.928   1.618  52.927  1.00  0.00    -0.334 N 
HETATM   20  H2  UNL     1      28.175   1.252  51.983  1.00  0.00     0.168 HD
BRANCH  19  21
HETATM   21  C1  UNL     1      28.772   2.506  53.657  1.00  0.00     0.353 C 
HETATM   22  O1  UNL     1      29.259   2.265  54.791  1.00  0.00    -0.283 OA
ENDBRANCH  19  21
ENDBRANCH   1  19
TORSDOF 4
ENDMDL
