MODEL 1
REMARK VINA RESULT:      -6.8      0.000      0.000
REMARK  9 active torsions:
REMARK  status: ('A' for Active; 'I' for Inactive)
REMARK    1  A    between atoms: O1_2  and  C2_3 
REMARK    2  A    between atoms: N1_7  and  C6_8 
REMARK    3  A    between atoms: C6_8  and  S1_9 
REMARK    4  A    between atoms: S1_9  and  N2_10 
REMARK    5  A    between atoms: N2_10  and  C7_11 
REMARK    6  A    between atoms: C7_11  and  N3_12 
REMARK    7  A    between atoms: N3_12  and  C8_13 
REMARK    8  A    between atoms: C15_20  and  O2_21 
REMARK    9  A    between atoms: O2_21  and  P1_22 
ROOT
HETATM    1  C2  UNL     1      25.688  -0.099  53.592  1.00  0.00     0.098 A 
HETATM    2  C3  UNL     1      24.519  -0.030  52.997  1.00  0.00     0.019 A 
HETATM    3  C4  UNL     1      23.749   1.194  52.685  1.00  0.00     0.088 A 
HETATM    4  C5  UNL     1      24.493   2.390  53.146  1.00  0.00     0.036 A 
HETATM    5  N1  UNL     1      24.107   3.594  53.028  1.00  0.00    -0.274 NA
HETATM    6  C14 UNL     1      25.790   2.309  53.805  1.00  0.00     0.067 A 
HETATM    7  C15 UNL     1      26.364   1.114  54.019  1.00  0.00     0.108 A 
ENDROOT
BRANCH   5   8
HETATM    8  C6  UNL     1      22.879   3.979  52.423  1.00  0.00     0.222 C 
BRANCH   8   9
HETATM    9  S1  UNL     1      23.667   4.642  51.099  1.00  0.00    -0.033 SA
BRANCH   9  10
HETATM   10  N2  UNL     1      24.280   3.461  50.137  1.00  0.00    -0.158 NA
BRANCH  10  11
HETATM   11  C7  UNL     1      25.651   3.708  49.674  1.00  0.00     0.243 C 
BRANCH  11  12
HETATM   12  N3  UNL     1      25.628   5.064  49.189  1.00  0.00    -0.376 N 
HETATM   13  H10 UNL     1      24.741   5.605  49.220  1.00  0.00     0.161 HD
BRANCH  12  14
HETATM   14  C8  UNL     1      26.788   5.693  48.664  1.00  0.00     0.028 A 
HETATM   15  C9  UNL     1      27.976   5.009  48.568  1.00  0.00     0.029 A 
HETATM   16  C10 UNL     1      29.158   5.530  48.075  1.00  0.00     0.002 A 
HETATM   17  C11 UNL     1      29.114   6.836  47.654  1.00  0.00     0.000 A 
HETATM   18  C12 UNL     1      27.955   7.613  47.712  1.00  0.00     0.002 A 
HETATM   19  C13 UNL     1      26.841   6.986  48.222  1.00  0.00     0.029 A 
ENDBRANCH  12  14
ENDBRANCH  11  12
ENDBRANCH  10  11
ENDBRANCH   9  10
ENDBRANCH   8   9
ENDBRANCH   5   8
BRANCH   7  20
HETATM   20  O2  UNL     1      27.587   0.946  54.635  1.00  0.00    -0.325 OA
BRANCH  20  21
HETATM   21  P1  UNL     1      29.082   1.094  53.761  1.00  0.00     0.016 P 
HETATM   22  C16 UNL     1      29.924  -0.546  53.616  1.00  0.00     0.072 C 
HETATM   23  H17 UNL     1      29.979   2.090  54.370  1.00  0.00     0.087 HD
ENDBRANCH  20  21
ENDBRANCH   7  20
BRANCH   1  24
HETATM   24  O1  UNL     1      26.135  -1.405  53.734  1.00  0.00    -0.353 OA
HETATM   25  C1  UNL     1      26.804  -2.053  52.675  1.00  0.00     0.210 C 
ENDBRANCH   1  24
TORSDOF 9
ENDMDL
MODEL 2
REMARK VINA RESULT:      -6.7      4.584      7.680
REMARK  9 active torsions:
REMARK  status: ('A' for Active; 'I' for Inactive)
REMARK    1  A    between atoms: O1_2  and  C2_3 
REMARK    2  A    between atoms: N1_7  and  C6_8 
REMARK    3  A    between atoms: C6_8  and  S1_9 
REMARK    4  A    between atoms: S1_9  and  N2_10 
REMARK    5  A    between atoms: N2_10  and  C7_11 
REMARK    6  A    between atoms: C7_11  and  N3_12 
REMARK    7  A    between atoms: N3_12  and  C8_13 
REMARK    8  A    between atoms: C15_20  and  O2_21 
REMARK    9  A    between atoms: O2_21  and  P1_22 
ROOT
HETATM    1  C2  UNL     1      22.728   3.870  51.407  1.00  0.00     0.098 A 
HETATM    2  C3  UNL     1      23.203   3.682  52.617  1.00  0.00     0.019 A 
HETATM    3  C4  UNL     1      24.481   3.031  52.981  1.00  0.00     0.088 A 
HETATM    4  C5  UNL     1      25.194   2.597  51.756  1.00  0.00     0.036 A 
HETATM    5  N1  UNL     1      26.318   2.008  51.722  1.00  0.00    -0.274 NA
HETATM    6  C14 UNL     1      24.663   2.809  50.415  1.00  0.00     0.067 A 
HETATM    7  C15 UNL     1      23.479   3.421  50.247  1.00  0.00     0.108 A 
ENDROOT
BRANCH   5   8
HETATM    8  C6  UNL     1      27.074   1.672  52.878  1.00  0.00     0.222 C 
BRANCH   8   9
HETATM    9  S1  UNL     1      27.145   0.056  52.439  1.00  0.00    -0.033 SA
BRANCH   9  10
HETATM   10  N2  UNL     1      26.718  -0.907  53.698  1.00  0.00    -0.158 NA
BRANCH  10  11
HETATM   11  C7  UNL     1      25.422  -0.575  54.301  1.00  0.00     0.243 C 
BRANCH  11  12
HETATM   12  N3  UNL     1      24.466  -0.801  53.249  1.00  0.00    -0.376 N 
HETATM   13  H10 UNL     1      24.783  -1.210  52.347  1.00  0.00     0.161 HD
BRANCH  12  14
HETATM   14  C8  UNL     1      23.091  -0.479  53.401  1.00  0.00     0.028 A 
HETATM   15  C9  UNL     1      22.456  -0.660  54.606  1.00  0.00     0.029 A 
HETATM   16  C10 UNL     1      21.126  -0.380  54.857  1.00  0.00     0.002 A 
HETATM   17  C11 UNL     1      20.404   0.118  53.800  1.00  0.00     0.000 A 
HETATM   18  C12 UNL     1      20.960   0.337  52.538  1.00  0.00     0.002 A 
HETATM   19  C13 UNL     1      22.293   0.021  52.410  1.00  0.00     0.029 A 
ENDBRANCH  12  14
ENDBRANCH  11  12
ENDBRANCH  10  11
ENDBRANCH   9  10
ENDBRANCH   8   9
ENDBRANCH   5   8
BRANCH   7  20
HETATM   20  O2  UNL     1      22.903   3.661  49.017  1.00  0.00    -0.325 OA
BRANCH  20  21
HETATM   21  P1  UNL     1      22.325   2.371  48.008  1.00  0.00     0.016 P 
HETATM   22  C16 UNL     1      21.362   1.141  48.999  1.00  0.00     0.072 C 
HETATM   23  H17 UNL     1      23.419   1.710  47.276  1.00  0.00     0.087 HD
ENDBRANCH  20  21
ENDBRANCH   7  20
BRANCH   1  24
HETATM   24  O1  UNL     1      21.499   4.514  51.414  1.00  0.00    -0.353 OA
HETATM   25  C1  UNL     1      20.309   3.788  51.630  1.00  0.00     0.210 C 
ENDBRANCH   1  24
TORSDOF 9
ENDMDL
MODEL 3
REMARK VINA RESULT:      -6.7      4.872      6.876
REMARK  9 active torsions:
REMARK  status: ('A' for Active; 'I' for Inactive)
REMARK    1  A    between atoms: O1_2  and  C2_3 
REMARK    2  A    between atoms: N1_7  and  C6_8 
REMARK    3  A    between atoms: C6_8  and  S1_9 
REMARK    4  A    between atoms: S1_9  and  N2_10 
REMARK    5  A    between atoms: N2_10  and  C7_11 
REMARK    6  A    between atoms: C7_11  and  N3_12 
REMARK    7  A    between atoms: N3_12  and  C8_13 
REMARK    8  A    between atoms: C15_20  and  O2_21 
REMARK    9  A    between atoms: O2_21  and  P1_22 
ROOT
HETATM    1  C2  UNL     1      22.850   2.259  50.094  1.00  0.00     0.098 A 
HETATM    2  C3  UNL     1      21.993   1.276  49.940  1.00  0.00     0.019 A 
HETATM    3  C4  UNL     1      21.315   0.509  51.008  1.00  0.00     0.088 A 
HETATM    4  C5  UNL     1      21.741   1.009  52.337  1.00  0.00     0.036 A 
HETATM    5  N1  UNL     1      21.343   0.565  53.458  1.00  0.00    -0.274 NA
HETATM    6  C14 UNL     1      22.692   2.101  52.504  1.00  0.00     0.067 A 
HETATM    7  C15 UNL     1      23.224   2.701  51.426  1.00  0.00     0.108 A 
ENDROOT
BRANCH   5   8
HETATM    8  C6  UNL     1      20.411  -0.498  53.607  1.00  0.00     0.222 C 
BRANCH   8   9
HETATM    9  S1  UNL     1      21.625  -1.594  53.976  1.00  0.00    -0.033 SA
BRANCH   9  10
HETATM   10  N2  UNL     1      22.245  -1.293  55.466  1.00  0.00    -0.158 NA
BRANCH  10  11
HETATM   11  C7  UNL     1      23.710  -1.198  55.504  1.00  0.00     0.243 C 
BRANCH  11  12
HETATM   12  N3  UNL     1      24.091  -0.948  54.139  1.00  0.00    -0.376 N 
HETATM   13  H10 UNL     1      23.456  -1.238  53.368  1.00  0.00     0.161 HD
BRANCH  12  14
HETATM   14  C8  UNL     1      25.317  -0.315  53.805  1.00  0.00     0.028 A 
HETATM   15  C9  UNL     1      25.608   0.009  52.502  1.00  0.00     0.029 A 
HETATM   16  C10 UNL     1      26.770   0.623  52.073  1.00  0.00     0.002 A 
HETATM   17  C11 UNL     1      27.690   0.924  53.048  1.00  0.00     0.000 A 
HETATM   18  C12 UNL     1      27.485   0.635  54.399  1.00  0.00     0.002 A 
HETATM   19  C13 UNL     1      26.291   0.023  54.704  1.00  0.00     0.029 A 
ENDBRANCH  12  14
ENDBRANCH  11  12
ENDBRANCH  10  11
ENDBRANCH   9  10
ENDBRANCH   8   9
ENDBRANCH   5   8
BRANCH   7  20
HETATM   20  O2  UNL     1      24.130   3.740  51.492  1.00  0.00    -0.325 OA
BRANCH  20  21
HETATM   21  P1  UNL     1      23.622   5.401  51.488  1.00  0.00     0.016 P 
HETATM   22  C16 UNL     1      21.777   5.525  51.473  1.00  0.00     0.072 C 
HETATM   23  H17 UNL     1      24.205   6.153  50.364  1.00  0.00     0.087 HD
ENDBRANCH  20  21
ENDBRANCH   7  20
BRANCH   1  24
HETATM   24  O1  UNL     1      23.300   2.764  48.883  1.00  0.00    -0.353 OA
HETATM   25  C1  UNL     1      22.474   3.599  48.101  1.00  0.00     0.210 C 
ENDBRANCH   1  24
TORSDOF 9
ENDMDL
MODEL 4
REMARK VINA RESULT:      -6.7      2.836      6.807
REMARK  9 active torsions:
REMARK  status: ('A' for Active; 'I' for Inactive)
REMARK    1  A    between atoms: O1_2  and  C2_3 
REMARK    2  A    between atoms: N1_7  and  C6_8 
REMARK    3  A    between atoms: C6_8  and  S1_9 
REMARK    4  A    between atoms: S1_9  and  N2_10 
REMARK    5  A    between atoms: N2_10  and  C7_11 
REMARK    6  A    between atoms: C7_11  and  N3_12 
REMARK    7  A    between atoms: N3_12  and  C8_13 
REMARK    8  A    between atoms: C15_20  and  O2_21 
REMARK    9  A    between atoms: O2_21  and  P1_22 
ROOT
HETATM    1  C2  UNL     1      26.175   3.806  49.754  1.00  0.00     0.098 A 
HETATM    2  C3  UNL     1      25.214   4.579  49.302  1.00  0.00     0.019 A 
HETATM    3  C4  UNL     1      23.866   4.759  49.887  1.00  0.00     0.088 A 
HETATM    4  C5  UNL     1      23.727   3.920  51.102  1.00  0.00     0.036 A 
HETATM    5  N1  UNL     1      22.695   3.846  51.837  1.00  0.00    -0.274 NA
HETATM    6  C14 UNL     1      24.797   3.064  51.599  1.00  0.00     0.067 A 
HETATM    7  C15 UNL     1      25.973   3.010  50.952  1.00  0.00     0.108 A 
ENDROOT
BRANCH   5   8
HETATM    8  C6  UNL     1      21.496   4.572  51.599  1.00  0.00     0.222 C 
BRANCH   8   9
HETATM    9  S1  UNL     1      20.542   3.260  52.023  1.00  0.00    -0.033 SA
BRANCH   9  10
HETATM   10  N2  UNL     1      20.301   2.276  50.732  1.00  0.00    -0.158 NA
BRANCH  10  11
HETATM   11  C7  UNL     1      20.409   0.843  51.034  1.00  0.00     0.243 C 
BRANCH  11  12
HETATM   12  N3  UNL     1      21.787   0.656  51.408  1.00  0.00    -0.376 N 
HETATM   13  H10 UNL     1      22.540   0.992  50.775  1.00  0.00     0.161 HD
BRANCH  12  14
HETATM   14  C8  UNL     1      22.156   0.019  52.622  1.00  0.00     0.028 A 
HETATM   15  C9  UNL     1      21.209  -0.575  53.420  1.00  0.00     0.029 A 
HETATM   16  C10 UNL     1      21.464  -1.217  54.618  1.00  0.00     0.002 A 
HETATM   17  C11 UNL     1      22.777  -1.250  55.019  1.00  0.00     0.000 A 
HETATM   18  C12 UNL     1      23.811  -0.674  54.276  1.00  0.00     0.002 A 
HETATM   19  C13 UNL     1      23.434  -0.063  53.102  1.00  0.00     0.029 A 
ENDBRANCH  12  14
ENDBRANCH  11  12
ENDBRANCH  10  11
ENDBRANCH   9  10
ENDBRANCH   8   9
ENDBRANCH   5   8
BRANCH   7  20
HETATM   20  O2  UNL     1      27.037   2.229  51.351  1.00  0.00    -0.325 OA
BRANCH  20  21
HETATM   21  P1  UNL     1      27.239   1.730  53.003  1.00  0.00     0.016 P 
HETATM   22  C16 UNL     1      28.795   2.430  53.716  1.00  0.00     0.072 C 
HETATM   23  H17 UNL     1      27.214   0.264  53.143  1.00  0.00     0.087 HD
ENDBRANCH  20  21
ENDBRANCH   7  20
BRANCH   1  24
HETATM   24  O1  UNL     1      27.318   3.869  48.969  1.00  0.00    -0.353 OA
HETATM   25  C1  UNL     1      27.840   5.113  48.559  1.00  0.00     0.210 C 
ENDBRANCH   1  24
TORSDOF 9
ENDMDL
MODEL 5
REMARK VINA RESULT:      -6.6      2.006      3.104
REMARK  9 active torsions:
REMARK  status: ('A' for Active; 'I' for Inactive)
REMARK    1  A    between atoms: O1_2  and  C2_3 
REMARK    2  A    between atoms: N1_7  and  C6_8 
REMARK    3  A    between atoms: C6_8  and  S1_9 
REMARK    4  A    between atoms: S1_9  and  N2_10 
REMARK    5  A    between atoms: N2_10  and  C7_11 
REMARK    6  A    between atoms: C7_11  and  N3_12 
REMARK    7  A    between atoms: N3_12  and  C8_13 
REMARK    8  A    between atoms: C15_20  and  O2_21 
REMARK    9  A    between atoms: O2_21  and  P1_22 
ROOT
HETATM    1  C2  UNL     1      26.131   1.485  53.862  1.00  0.00     0.098 A 
HETATM    2  C3  UNL     1      25.426   2.560  53.590  1.00  0.00     0.019 A 
HETATM    3  C4  UNL     1      24.025   2.610  53.118  1.00  0.00     0.088 A 
HETATM    4  C5  UNL     1      23.486   1.235  52.985  1.00  0.00     0.036 A 
HETATM    5  N1  UNL     1      22.314   0.932  52.604  1.00  0.00    -0.274 NA
HETATM    6  C14 UNL     1      24.272   0.046  53.288  1.00  0.00     0.067 A 
HETATM    7  C15 UNL     1      25.542   0.166  53.710  1.00  0.00     0.108 A 
ENDROOT
BRANCH   5   8
HETATM    8  C6  UNL     1      21.325   1.887  52.242  1.00  0.00     0.222 C 
BRANCH   8   9
HETATM    9  S1  UNL     1      21.541   1.585  50.607  1.00  0.00    -0.033 SA
BRANCH   9  10
HETATM   10  N2  UNL     1      21.192   2.921  49.719  1.00  0.00    -0.158 NA
BRANCH  10  11
HETATM   11  C7  UNL     1      22.126   3.175  48.615  1.00  0.00     0.243 C 
BRANCH  11  12
HETATM   12  N3  UNL     1      22.855   4.348  49.021  1.00  0.00    -0.376 N 
HETATM   13  H10 UNL     1      22.337   5.221  49.248  1.00  0.00     0.161 HD
BRANCH  12  14
HETATM   14  C8  UNL     1      24.272   4.354  49.124  1.00  0.00     0.028 A 
HETATM   15  C9  UNL     1      24.992   5.485  48.823  1.00  0.00     0.029 A 
HETATM   16  C10 UNL     1      26.369   5.594  48.889  1.00  0.00     0.002 A 
HETATM   17  C11 UNL     1      27.046   4.468  49.290  1.00  0.00     0.000 A 
HETATM   18  C12 UNL     1      26.402   3.272  49.616  1.00  0.00     0.002 A 
HETATM   19  C13 UNL     1      25.030   3.285  49.513  1.00  0.00     0.029 A 
ENDBRANCH  12  14
ENDBRANCH  11  12
ENDBRANCH  10  11
ENDBRANCH   9  10
ENDBRANCH   8   9
ENDBRANCH   5   8
BRANCH   7  20
HETATM   20  O2  UNL     1      26.356  -0.904  54.019  1.00  0.00    -0.325 OA
BRANCH  20  21
HETATM   21  P1  UNL     1      27.417  -1.618  52.843  1.00  0.00     0.016 P 
HETATM   22  C16 UNL     1      29.185  -1.429  53.352  1.00  0.00     0.072 C 
HETATM   23  H17 UNL     1      27.199  -1.066  51.496  1.00  0.00     0.087 HD
ENDBRANCH  20  21
ENDBRANCH   7  20
BRANCH   1  24
HETATM   24  O1  UNL     1      27.418   1.788  54.283  1.00  0.00    -0.353 OA
HETATM   25  C1  UNL     1      28.380   2.262  53.367  1.00  0.00     0.210 C 
ENDBRANCH   1  24
TORSDOF 9
ENDMDL
MODEL 6
REMARK VINA RESULT:      -6.6      3.848      7.224
REMARK  9 active torsions:
REMARK  status: ('A' for Active; 'I' for Inactive)
REMARK    1  A    between atoms: O1_2  and  C2_3 
REMARK    2  A    between atoms: N1_7  and  C6_8 
REMARK    3  A    between atoms: C6_8  and  S1_9 
REMARK    4  A    between atoms: S1_9  and  N2_10 
REMARK    5  A    between atoms: N2_10  and  C7_11 
REMARK    6  A    between atoms: C7_11  and  N3_12 
REMARK    7  A    between atoms: N3_12  and  C8_13 
REMARK    8  A    between atoms: C15_20  and  O2_21 
REMARK    9  A    between atoms: O2_21  and  P1_22 
ROOT
HETATM    1  C2  UNL     1      21.650   4.355  51.699  1.00  0.00     0.098 A 
HETATM    2  C3  UNL     1      20.515   3.814  52.080  1.00  0.00     0.019 A 
HETATM    3  C4  UNL     1      20.293   2.413  52.501  1.00  0.00     0.088 A 
HETATM    4  C5  UNL     1      21.568   1.658  52.438  1.00  0.00     0.036 A 
HETATM    5  N1  UNL     1      21.720   0.434  52.735  1.00  0.00    -0.274 NA
HETATM    6  C14 UNL     1      22.825   2.263  52.015  1.00  0.00     0.067 A 
HETATM    7  C15 UNL     1      22.864   3.558  51.660  1.00  0.00     0.108 A 
ENDROOT
BRANCH   5   8
HETATM    8  C6  UNL     1      20.668  -0.412  53.182  1.00  0.00     0.222 C 
BRANCH   8   9
HETATM    9  S1  UNL     1      21.223  -0.371  54.764  1.00  0.00    -0.033 SA
BRANCH   9  10
HETATM   10  N2  UNL     1      22.171  -1.674  55.080  1.00  0.00    -0.158 NA
BRANCH  10  11
HETATM   11  C7  UNL     1      23.551  -1.341  55.452  1.00  0.00     0.243 C 
BRANCH  11  12
HETATM   12  N3  UNL     1      24.064  -0.612  54.321  1.00  0.00    -0.376 N 
HETATM   13  H10 UNL     1      23.403  -0.132  53.678  1.00  0.00     0.161 HD
BRANCH  12  14
HETATM   14  C8  UNL     1      25.456  -0.527  54.050  1.00  0.00     0.028 A 
HETATM   15  C9  UNL     1      26.308   0.084  54.938  1.00  0.00     0.029 A 
HETATM   16  C10 UNL     1      27.673   0.221  54.769  1.00  0.00     0.002 A 
HETATM   17  C11 UNL     1      28.193  -0.306  53.612  1.00  0.00     0.000 A 
HETATM   18  C12 UNL     1      27.408  -0.945  52.649  1.00  0.00     0.002 A 
HETATM   19  C13 UNL     1      26.063  -1.020  52.929  1.00  0.00     0.029 A 
ENDBRANCH  12  14
ENDBRANCH  11  12
ENDBRANCH  10  11
ENDBRANCH   9  10
ENDBRANCH   8   9
ENDBRANCH   5   8
BRANCH   7  20
HETATM   20  O2  UNL     1      24.008   4.210  51.248  1.00  0.00    -0.325 OA
BRANCH  20  21
HETATM   21  P1  UNL     1      24.543   4.167  49.595  1.00  0.00     0.016 P 
HETATM   22  C16 UNL     1      26.381   4.343  49.494  1.00  0.00     0.072 C 
HETATM   23  H17 UNL     1      23.874   5.188  48.772  1.00  0.00     0.087 HD
ENDBRANCH  20  21
ENDBRANCH   7  20
BRANCH   1  24
HETATM   24  O1  UNL     1      21.513   5.695  51.368  1.00  0.00    -0.353 OA
HETATM   25  C1  UNL     1      20.846   6.079  50.186  1.00  0.00     0.210 C 
ENDBRANCH   1  24
TORSDOF 9
ENDMDL
MODEL 7
REMARK VINA RESULT:      -6.5      2.948      5.098
REMARK  9 active torsions:
REMARK  status: ('A' for Active; 'I' for Inactive)
REMARK    1  A    between atoms: O1_2  and  C2_3 
REMARK    2  A    between atoms: N1_7  and  C6_8 
REMARK    3  A    between atoms: C6_8  and  S1_9 
REMARK    4  A    between atoms: S1_9  and  N2_10 
REMARK    5  A    between atoms: N2_10  and  C7_11 
REMARK    6  A    between atoms: C7_11  and  N3_12 
REMARK    7  A    between atoms: N3_12  and  C8_13 
REMARK    8  A    between atoms: C15_20  and  O2_21 
REMARK    9  A    between atoms: O2_21  and  P1_22 
ROOT
HETATM    1  C2  UNL     1      27.559   1.053  52.977  1.00  0.00     0.098 A 
HETATM    2  C3  UNL     1      27.134   0.172  53.853  1.00  0.00     0.019 A 
HETATM    3  C4  UNL     1      25.734  -0.250  54.084  1.00  0.00     0.088 A 
HETATM    4  C5  UNL     1      24.829   0.477  53.162  1.00  0.00     0.036 A 
HETATM    5  N1  UNL     1      23.568   0.344  53.104  1.00  0.00    -0.274 NA
HETATM    6  C14 UNL     1      25.306   1.453  52.191  1.00  0.00     0.067 A 
HETATM    7  C15 UNL     1      26.618   1.730  52.102  1.00  0.00     0.108 A 
ENDROOT
BRANCH   5   8
HETATM    8  C6  UNL     1      22.823  -0.541  53.931  1.00  0.00     0.222 C 
BRANCH   8   9
HETATM    9  S1  UNL     1      21.425  -0.301  53.038  1.00  0.00    -0.033 SA
BRANCH   9  10
HETATM   10  N2  UNL     1      20.673   1.084  53.499  1.00  0.00    -0.158 NA
BRANCH  10  11
HETATM   11  C7  UNL     1      20.459   2.047  52.412  1.00  0.00     0.243 C 
BRANCH  11  12
HETATM   12  N3  UNL     1      21.785   2.445  52.017  1.00  0.00    -0.376 N 
HETATM   13  H10 UNL     1      22.558   2.415  52.711  1.00  0.00     0.161 HD
BRANCH  12  14
HETATM   14  C8  UNL     1      22.076   2.884  50.698  1.00  0.00     0.028 A 
HETATM   15  C9  UNL     1      21.991   4.214  50.365  1.00  0.00     0.029 A 
HETATM   16  C10 UNL     1      22.251   4.742  49.114  1.00  0.00     0.002 A 
HETATM   17  C11 UNL     1      22.624   3.843  48.144  1.00  0.00     0.000 A 
HETATM   18  C12 UNL     1      22.738   2.471  48.386  1.00  0.00     0.002 A 
HETATM   19  C13 UNL     1      22.453   2.065  49.669  1.00  0.00     0.029 A 
ENDBRANCH  12  14
ENDBRANCH  11  12
ENDBRANCH  10  11
ENDBRANCH   9  10
ENDBRANCH   8   9
ENDBRANCH   5   8
BRANCH   7  20
HETATM   20  O2  UNL     1      27.155   2.638  51.214  1.00  0.00    -0.325 OA
BRANCH  20  21
HETATM   21  P1  UNL     1      26.169   3.492  50.066  1.00  0.00     0.016 P 
HETATM   22  C16 UNL     1      27.210   4.548  48.962  1.00  0.00     0.072 C 
HETATM   23  H17 UNL     1      25.125   4.296  50.725  1.00  0.00     0.087 HD
ENDBRANCH  20  21
ENDBRANCH   7  20
BRANCH   1  24
HETATM   24  O1  UNL     1      28.937   1.218  53.018  1.00  0.00    -0.353 OA
HETATM   25  C1  UNL     1      29.766   0.205  53.543  1.00  0.00     0.210 C 
ENDBRANCH   1  24
TORSDOF 9
ENDMDL
MODEL 8
REMARK VINA RESULT:      -6.4      1.789      1.992
REMARK  9 active torsions:
REMARK  status: ('A' for Active; 'I' for Inactive)
REMARK    1  A    between atoms: O1_2  and  C2_3 
REMARK    2  A    between atoms: N1_7  and  C6_8 
REMARK    3  A    between atoms: C6_8  and  S1_9 
REMARK    4  A    between atoms: S1_9  and  N2_10 
REMARK    5  A    between atoms: N2_10  and  C7_11 
REMARK    6  A    between atoms: C7_11  and  N3_12 
REMARK    7  A    between atoms: N3_12  and  C8_13 
REMARK    8  A    between atoms: C15_20  and  O2_21 
REMARK    9  A    between atoms: O2_21  and  P1_22 
ROOT
HETATM    1  C2  UNL     1      25.515   0.663  52.697  1.00  0.00     0.098 A 
HETATM    2  C3  UNL     1      24.207   0.542  52.728  1.00  0.00     0.019 A 
HETATM    3  C4  UNL     1      23.214   1.455  52.120  1.00  0.00     0.088 A 
HETATM    4  C5  UNL     1      23.907   2.574  51.437  1.00  0.00     0.036 A 
HETATM    5  N1  UNL     1      23.343   3.527  50.817  1.00  0.00    -0.274 NA
HETATM    6  C14 UNL     1      25.358   2.703  51.405  1.00  0.00     0.067 A 
HETATM    7  C15 UNL     1      26.130   1.785  52.010  1.00  0.00     0.108 A 
ENDROOT
BRANCH   5   8
HETATM    8  C6  UNL     1      21.934   3.663  50.681  1.00  0.00     0.222 C 
BRANCH   8   9
HETATM    9  S1  UNL     1      21.943   5.163  51.429  1.00  0.00    -0.033 SA
BRANCH   9  10
HETATM   10  N2  UNL     1      22.478   6.323  50.397  1.00  0.00    -0.158 NA
BRANCH  10  11
HETATM   11  C7  UNL     1      23.609   7.109  50.905  1.00  0.00     0.243 C 
BRANCH  11  12
HETATM   12  N3  UNL     1      24.725   6.202  50.869  1.00  0.00    -0.376 N 
HETATM   13  H10 UNL     1      24.742   5.384  51.511  1.00  0.00     0.161 HD
BRANCH  12  14
HETATM   14  C8  UNL     1      25.816   6.386  49.978  1.00  0.00     0.028 A 
HETATM   15  C9  UNL     1      26.398   5.313  49.348  1.00  0.00     0.029 A 
HETATM   16  C10 UNL     1      27.461   5.385  48.467  1.00  0.00     0.002 A 
HETATM   17  C11 UNL     1      27.955   6.642  48.219  1.00  0.00     0.000 A 
HETATM   18  C12 UNL     1      27.431   7.794  48.811  1.00  0.00     0.002 A 
HETATM   19  C13 UNL     1      26.374   7.596  49.669  1.00  0.00     0.029 A 
ENDBRANCH  12  14
ENDBRANCH  11  12
ENDBRANCH  10  11
ENDBRANCH   9  10
ENDBRANCH   8   9
ENDBRANCH   5   8
BRANCH   7  20
HETATM   20  O2  UNL     1      27.509   1.829  52.028  1.00  0.00    -0.325 OA
BRANCH  20  21
HETATM   21  P1  UNL     1      28.395   2.178  53.481  1.00  0.00     0.016 P 
HETATM   22  C16 UNL     1      29.391   0.713  54.012  1.00  0.00     0.072 C 
HETATM   23  H17 UNL     1      27.514   2.633  54.570  1.00  0.00     0.087 HD
ENDBRANCH  20  21
ENDBRANCH   7  20
BRANCH   1  24
HETATM   24  O1  UNL     1      26.158  -0.367  53.368  1.00  0.00    -0.353 OA
HETATM   25  C1  UNL     1      26.591  -1.516  52.674  1.00  0.00     0.210 C 
ENDBRANCH   1  24
TORSDOF 9
ENDMDL
MODEL 9
REMARK VINA RESULT:      -6.4      3.162      6.122
REMARK  9 active torsions:
REMARK  status: ('A' for Active; 'I' for Inactive)
REMARK    1  A    between atoms: O1_2  and  C2_3 
REMARK    2  A    between atoms: N1_7  and  C6_8 
REMARK    3  A    between atoms: C6_8  and  S1_9 
REMARK    4  A    between atoms: S1_9  and  N2_10 
REMARK    5  A    between atoms: N2_10  and  C7_11 
REMARK    6  A    between atoms: C7_11  and  N3_12 
REMARK    7  A    between atoms: N3_12  and  C8_13 
REMARK    8  A    between atoms: C15_20  and  O2_21 
REMARK    9  A    between atoms: O2_21  and  P1_22 
ROOT
HETATM    1  C2  UNL     1      25.359   0.079  53.921  1.00  0.00     0.098 A 
HETATM    2  C3  UNL     1      24.311   0.046  53.130  1.00  0.00     0.019 A 
HETATM    3  C4  UNL     1      23.914   1.068  52.136  1.00  0.00     0.088 A 
HETATM    4  C5  UNL     1      24.888   2.185  52.142  1.00  0.00     0.036 A 
HETATM    5  N1  UNL     1      24.836   3.218  51.406  1.00  0.00    -0.274 NA
HETATM    6  C14 UNL     1      26.050   2.216  53.021  1.00  0.00     0.067 A 
HETATM    7  C15 UNL     1      26.277   1.205  53.876  1.00  0.00     0.108 A 
ENDROOT
BRANCH   5   8
HETATM    8  C6  UNL     1      23.813   3.460  50.448  1.00  0.00     0.222 C 
BRANCH   8   9
HETATM    9  S1  UNL     1      23.475   4.969  51.097  1.00  0.00    -0.033 SA
BRANCH   9  10
HETATM   10  N2  UNL     1      22.211   4.882  52.140  1.00  0.00    -0.158 NA
BRANCH  10  11
HETATM   11  C7  UNL     1      21.113   4.019  51.689  1.00  0.00     0.243 C 
BRANCH  11  12
HETATM   12  N3  UNL     1      20.981   3.030  52.727  1.00  0.00    -0.376 N 
HETATM   13  H10 UNL     1      21.479   3.165  53.630  1.00  0.00     0.161 HD
BRANCH  12  14
HETATM   14  C8  UNL     1      20.189   1.863  52.557  1.00  0.00     0.028 A 
HETATM   15  C9  UNL     1      20.382   0.762  53.355  1.00  0.00     0.029 A 
HETATM   16  C10 UNL     1      19.668  -0.419  53.270  1.00  0.00     0.002 A 
HETATM   17  C11 UNL     1      18.693  -0.468  52.304  1.00  0.00     0.000 A 
HETATM   18  C12 UNL     1      18.422   0.600  51.446  1.00  0.00     0.002 A 
HETATM   19  C13 UNL     1      19.198   1.722  51.626  1.00  0.00     0.029 A 
ENDBRANCH  12  14
ENDBRANCH  11  12
ENDBRANCH  10  11
ENDBRANCH   9  10
ENDBRANCH   8   9
ENDBRANCH   5   8
BRANCH   7  20
HETATM   20  O2  UNL     1      27.349   1.153  54.742  1.00  0.00    -0.325 OA
BRANCH  20  21
HETATM   21  P1  UNL     1      28.971   0.894  54.178  1.00  0.00     0.016 P 
HETATM   22  C16 UNL     1      29.224  -0.871  53.689  1.00  0.00     0.072 C 
HETATM   23  H17 UNL     1      29.974   1.309  55.174  1.00  0.00     0.087 HD
ENDBRANCH  20  21
ENDBRANCH   7  20
BRANCH   1  24
HETATM   24  O1  UNL     1      25.443  -1.041  54.737  1.00  0.00    -0.353 OA
HETATM   25  C1  UNL     1      24.469  -1.280  55.729  1.00  0.00     0.210 C 
ENDBRANCH   1  24
TORSDOF 9
ENDMDL
