MODEL 1
REMARK VINA RESULT:      -8.0      0.000      0.000
REMARK  4 active torsions:
REMARK  status: ('A' for Active; 'I' for Inactive)
REMARK    1  A    between atoms: O1_2  and  C2_3 
REMARK    2  A    between atoms: C5_6  and  N1_7 
REMARK    3  A    between atoms: N1_7  and  C6_8 
REMARK    4  A    between atoms: C15_20  and  P1_21 
ROOT
HETATM    1  C2  UNL     1      21.138   0.333  51.623  1.00  0.00     0.080 A 
HETATM    2  C3  UNL     1      22.442   0.259  52.046  1.00  0.00     0.055 A 
HETATM    3  C4  UNL     1      22.858  -0.295  53.230  1.00  0.00     0.041 A 
HETATM    4  C5  UNL     1      24.190  -0.346  53.614  1.00  0.00     0.142 A 
HETATM    5  N2  UNL     1      24.457  -0.915  54.800  1.00  0.00    -0.224 NA
HETATM    6  C12 UNL     1      23.500  -1.419  55.596  1.00  0.00     0.236 A 
HETATM    7  N3  UNL     1      22.186  -1.369  55.217  1.00  0.00    -0.241 NA
HETATM    8  C13 UNL     1      21.868  -0.810  54.038  1.00  0.00     0.073 A 
HETATM    9  C14 UNL     1      20.544  -0.756  53.656  1.00  0.00     0.047 A 
HETATM   10  C15 UNL     1      20.148  -0.184  52.438  1.00  0.00     0.001 A 
ENDROOT
BRANCH   4  11
HETATM   11  N1  UNL     1      25.077   0.235  52.655  1.00  0.00    -0.340 N 
HETATM   12  H5  UNL     1      24.835   0.405  51.671  1.00  0.00     0.167 HD
BRANCH  11  13
HETATM   13  C6  UNL     1      26.418   0.632  53.011  1.00  0.00     0.035 A 
HETATM   14  C7  UNL     1      26.790   1.946  53.218  1.00  0.00     0.029 A 
HETATM   15  C8  UNL     1      28.064   2.303  53.558  1.00  0.00     0.004 A 
HETATM   16  C9  UNL     1      29.053   1.322  53.712  1.00  0.00     0.024 A 
HETATM   17  C10 UNL     1      28.724  -0.000  53.515  1.00  0.00     0.036 A 
HETATM   18 CL1  UNL     1      29.956  -1.248  53.697  1.00  0.00    -0.084 Cl
HETATM   19  C11 UNL     1      27.423  -0.297  53.171  1.00  0.00     0.053 A 
ENDBRANCH  11  13
ENDBRANCH   4  11
BRANCH   1  20
HETATM   20  O1  UNL     1      20.664   0.875  50.448  1.00  0.00    -0.355 OA
HETATM   21  C1  UNL     1      21.557   1.437  49.525  1.00  0.00     0.210 C 
ENDBRANCH   1  20
BRANCH  10  22
HETATM   22  P1  UNL     1      18.347  -0.178  52.062  1.00  0.00    -0.096 P 
HETATM   23  C16 UNL     1      17.497  -1.416  53.161  1.00  0.00     0.046 C 
HETATM   24  H12 UNL     1      17.812   1.159  52.282  1.00  0.00     0.062 HD
ENDBRANCH  10  22
TORSDOF 4
ENDMDL
MODEL 2
REMARK VINA RESULT:      -7.5      4.240      5.353
REMARK  4 active torsions:
REMARK  status: ('A' for Active; 'I' for Inactive)
REMARK    1  A    between atoms: O1_2  and  C2_3 
REMARK    2  A    between atoms: C5_6  and  N1_7 
REMARK    3  A    between atoms: N1_7  and  C6_8 
REMARK    4  A    between atoms: C15_20  and  P1_21 
ROOT
HETATM    1  C2  UNL     1      22.846   1.414  51.406  1.00  0.00     0.080 A 
HETATM    2  C3  UNL     1      24.016   1.945  50.918  1.00  0.00     0.055 A 
HETATM    3  C4  UNL     1      25.208   1.983  51.593  1.00  0.00     0.041 A 
HETATM    4  C5  UNL     1      26.364   2.532  51.056  1.00  0.00     0.142 A 
HETATM    5  N2  UNL     1      27.462   2.505  51.828  1.00  0.00    -0.224 NA
HETATM    6  C12 UNL     1      27.469   1.979  53.064  1.00  0.00     0.236 A 
HETATM    7  N3  UNL     1      26.330   1.437  53.593  1.00  0.00    -0.241 NA
HETATM    8  C13 UNL     1      25.204   1.440  52.860  1.00  0.00     0.073 A 
HETATM    9  C14 UNL     1      24.054   0.897  53.393  1.00  0.00     0.047 A 
HETATM   10  C15 UNL     1      22.848   0.871  52.677  1.00  0.00     0.001 A 
ENDROOT
BRANCH   4  11
HETATM   11  N1  UNL     1      26.182   3.049  49.736  1.00  0.00    -0.340 N 
HETATM   12  H5  UNL     1      25.835   2.500  48.941  1.00  0.00     0.167 HD
BRANCH  11  13
HETATM   13  C6  UNL     1      26.491   4.422  49.416  1.00  0.00     0.035 A 
HETATM   14  C7  UNL     1      27.577   4.795  48.648  1.00  0.00     0.029 A 
HETATM   15  C8  UNL     1      27.853   6.100  48.350  1.00  0.00     0.004 A 
HETATM   16  C9  UNL     1      27.021   7.122  48.827  1.00  0.00     0.024 A 
HETATM   17  C10 UNL     1      25.927   6.793  49.597  1.00  0.00     0.036 A 
HETATM   18 CL1  UNL     1      24.872   8.065  50.212  1.00  0.00    -0.084 Cl
HETATM   19  C11 UNL     1      25.704   5.460  49.864  1.00  0.00     0.053 A 
ENDBRANCH  11  13
ENDBRANCH   4  11
BRANCH   1  20
HETATM   20  O1  UNL     1      21.624   1.347  50.774  1.00  0.00    -0.355 OA
HETATM   21  C1  UNL     1      21.561   1.112  49.392  1.00  0.00     0.210 C 
ENDBRANCH   1  20
BRANCH  10  22
HETATM   22  P1  UNL     1      21.393   0.120  53.516  1.00  0.00    -0.096 P 
HETATM   23  C16 UNL     1      21.993  -1.111  54.776  1.00  0.00     0.046 C 
HETATM   24  H12 UNL     1      20.607   1.169  54.153  1.00  0.00     0.062 HD
ENDBRANCH  10  22
TORSDOF 4
ENDMDL
MODEL 3
REMARK VINA RESULT:      -7.5      2.326      3.730
REMARK  4 active torsions:
REMARK  status: ('A' for Active; 'I' for Inactive)
REMARK    1  A    between atoms: O1_2  and  C2_3 
REMARK    2  A    between atoms: C5_6  and  N1_7 
REMARK    3  A    between atoms: N1_7  and  C6_8 
REMARK    4  A    between atoms: C15_20  and  P1_21 
ROOT
HETATM    1  C2  UNL     1      22.199   0.970  53.057  1.00  0.00     0.080 A 
HETATM    2  C3  UNL     1      23.471   1.485  53.014  1.00  0.00     0.055 A 
HETATM    3  C4  UNL     1      24.028   2.126  51.937  1.00  0.00     0.041 A 
HETATM    4  C5  UNL     1      25.321   2.629  51.942  1.00  0.00     0.142 A 
HETATM    5  N2  UNL     1      25.741   3.231  50.818  1.00  0.00    -0.224 NA
HETATM    6  C12 UNL     1      24.967   3.355  49.727  1.00  0.00     0.236 A 
HETATM    7  N3  UNL     1      23.692   2.859  49.722  1.00  0.00    -0.241 NA
HETATM    8  C13 UNL     1      23.225   2.247  50.824  1.00  0.00     0.073 A 
HETATM    9  C14 UNL     1      21.941   1.744  50.819  1.00  0.00     0.047 A 
HETATM   10  C15 UNL     1      21.398   1.094  51.937  1.00  0.00     0.001 A 
ENDROOT
BRANCH   4  11
HETATM   11  N1  UNL     1      26.006   2.411  53.177  1.00  0.00    -0.340 N 
HETATM   12  H5  UNL     1      25.799   2.911  54.050  1.00  0.00     0.167 HD
BRANCH  11  13
HETATM   13  C6  UNL     1      27.076   1.448  53.286  1.00  0.00     0.035 A 
HETATM   14  C7  UNL     1      28.353   1.777  53.696  1.00  0.00     0.029 A 
HETATM   15  C8  UNL     1      29.353   0.851  53.798  1.00  0.00     0.004 A 
HETATM   16  C9  UNL     1      29.104  -0.491  53.482  1.00  0.00     0.024 A 
HETATM   17  C10 UNL     1      27.844  -0.862  53.069  1.00  0.00     0.036 A 
HETATM   18 CL1  UNL     1      27.512  -2.546  52.662  1.00  0.00    -0.084 Cl
HETATM   19  C11 UNL     1      26.879   0.118  52.986  1.00  0.00     0.053 A 
ENDBRANCH  11  13
ENDBRANCH   4  11
BRANCH   1  20
HETATM   20  O1  UNL     1      21.588   0.321  54.108  1.00  0.00    -0.355 OA
HETATM   21  C1  UNL     1      22.184  -0.819  54.669  1.00  0.00     0.210 C 
ENDBRANCH   1  20
BRANCH  10  22
HETATM   22  P1  UNL     1      19.673   0.470  51.786  1.00  0.00    -0.096 P 
HETATM   23  C16 UNL     1      18.534   1.911  51.487  1.00  0.00     0.046 C 
HETATM   24  H12 UNL     1      19.599  -0.483  50.687  1.00  0.00     0.062 HD
ENDBRANCH  10  22
TORSDOF 4
ENDMDL
MODEL 4
REMARK VINA RESULT:      -7.4      4.326      7.423
REMARK  4 active torsions:
REMARK  status: ('A' for Active; 'I' for Inactive)
REMARK    1  A    between atoms: O1_2  and  C2_3 
REMARK    2  A    between atoms: C5_6  and  N1_7 
REMARK    3  A    between atoms: N1_7  and  C6_8 
REMARK    4  A    between atoms: C15_20  and  P1_21 
ROOT
HETATM    1  C2  UNL     1      25.955  -0.279  53.377  1.00  0.00     0.080 A 
HETATM    2  C3  UNL     1      24.783   0.099  52.769  1.00  0.00     0.055 A 
HETATM    3  C4  UNL     1      24.302   1.382  52.709  1.00  0.00     0.041 A 
HETATM    4  C5  UNL     1      23.109   1.714  52.083  1.00  0.00     0.142 A 
HETATM    5  N2  UNL     1      22.756   3.009  52.100  1.00  0.00    -0.224 NA
HETATM    6  C12 UNL     1      23.503   3.958  52.688  1.00  0.00     0.236 A 
HETATM    7  N3  UNL     1      24.679   3.631  53.305  1.00  0.00    -0.241 NA
HETATM    8  C13 UNL     1      25.077   2.347  53.315  1.00  0.00     0.073 A 
HETATM    9  C14 UNL     1      26.261   2.015  53.939  1.00  0.00     0.047 A 
HETATM   10  C15 UNL     1      26.728   0.694  53.984  1.00  0.00     0.001 A 
ENDROOT
BRANCH   4  11
HETATM   11  N1  UNL     1      22.439   0.587  51.512  1.00  0.00    -0.340 N 
HETATM   12  H5  UNL     1      22.818   0.014  50.749  1.00  0.00     0.167 HD
BRANCH  11  13
HETATM   13  C6  UNL     1      21.139   0.167  51.979  1.00  0.00     0.035 A 
HETATM   14  C7  UNL     1      20.925  -0.393  53.223  1.00  0.00     0.029 A 
HETATM   15  C8  UNL     1      19.687  -0.781  53.650  1.00  0.00     0.004 A 
HETATM   16  C9  UNL     1      18.571  -0.616  52.817  1.00  0.00     0.024 A 
HETATM   17  C10 UNL     1      18.741  -0.062  51.568  1.00  0.00     0.036 A 
HETATM   18 CL1  UNL     1      17.351   0.148  50.504  1.00  0.00    -0.084 Cl
HETATM   19  C11 UNL     1      20.015   0.308  51.195  1.00  0.00     0.053 A 
ENDBRANCH  11  13
ENDBRANCH   4  11
BRANCH   1  20
HETATM   20  O1  UNL     1      26.486  -1.547  53.467  1.00  0.00    -0.355 OA
HETATM   21  C1  UNL     1      26.909  -2.213  52.307  1.00  0.00     0.210 C 
ENDBRANCH   1  20
BRANCH  10  22
HETATM   22  P1  UNL     1      28.322   0.399  54.855  1.00  0.00    -0.096 P 
HETATM   23  C16 UNL     1      29.639   0.027  53.594  1.00  0.00     0.046 C 
HETATM   24  H12 UNL     1      28.672   1.579  55.634  1.00  0.00     0.062 HD
ENDBRANCH  10  22
TORSDOF 4
ENDMDL
MODEL 5
REMARK VINA RESULT:      -7.2      2.696      3.726
REMARK  4 active torsions:
REMARK  status: ('A' for Active; 'I' for Inactive)
REMARK    1  A    between atoms: O1_2  and  C2_3 
REMARK    2  A    between atoms: C5_6  and  N1_7 
REMARK    3  A    between atoms: N1_7  and  C6_8 
REMARK    4  A    between atoms: C15_20  and  P1_21 
ROOT
HETATM    1  C2  UNL     1      24.312   3.234  50.105  1.00  0.00     0.080 A 
HETATM    2  C3  UNL     1      24.812   2.675  51.256  1.00  0.00     0.055 A 
HETATM    3  C4  UNL     1      24.208   1.677  51.977  1.00  0.00     0.041 A 
HETATM    4  C5  UNL     1      24.754   1.145  53.137  1.00  0.00     0.142 A 
HETATM    5  N2  UNL     1      24.056   0.173  53.744  1.00  0.00    -0.224 NA
HETATM    6  C12 UNL     1      22.882  -0.281  53.274  1.00  0.00     0.236 A 
HETATM    7  N3  UNL     1      22.344   0.243  52.131  1.00  0.00    -0.241 NA
HETATM    8  C13 UNL     1      23.005   1.218  51.485  1.00  0.00     0.073 A 
HETATM    9  C14 UNL     1      22.463   1.750  50.334  1.00  0.00     0.047 A 
HETATM   10  C15 UNL     1      23.105   2.770  49.617  1.00  0.00     0.001 A 
ENDROOT
BRANCH   4  11
HETATM   11  N1  UNL     1      26.002   1.742  53.498  1.00  0.00    -0.340 N 
HETATM   12  H5  UNL     1      26.118   2.729  53.758  1.00  0.00     0.167 HD
BRANCH  11  13
HETATM   13  C6  UNL     1      27.226   0.977  53.516  1.00  0.00     0.035 A 
HETATM   14  C7  UNL     1      28.458   1.526  53.814  1.00  0.00     0.029 A 
HETATM   15  C8  UNL     1      29.607   0.787  53.831  1.00  0.00     0.004 A 
HETATM   16  C9  UNL     1      29.566  -0.583  53.539  1.00  0.00     0.024 A 
HETATM   17  C10 UNL     1      28.358  -1.170  53.236  1.00  0.00     0.036 A 
HETATM   18 CL1  UNL     1      28.288  -2.892  52.860  1.00  0.00    -0.084 Cl
HETATM   19  C11 UNL     1      27.236  -0.371  53.234  1.00  0.00     0.053 A 
ENDBRANCH  11  13
ENDBRANCH   4  11
BRANCH   1  20
HETATM   20  O1  UNL     1      24.874   4.233  49.342  1.00  0.00    -0.355 OA
HETATM   21  C1  UNL     1      26.263   4.427  49.353  1.00  0.00     0.210 C 
ENDBRANCH   1  20
BRANCH  10  22
HETATM   22  P1  UNL     1      22.261   3.386  48.102  1.00  0.00    -0.096 P 
HETATM   23  C16 UNL     1      20.641   2.490  47.907  1.00  0.00     0.046 C 
HETATM   24  H12 UNL     1      22.046   4.822  48.219  1.00  0.00     0.062 HD
ENDBRANCH  10  22
TORSDOF 4
ENDMDL
MODEL 6
REMARK VINA RESULT:      -7.2      1.645      1.857
REMARK  4 active torsions:
REMARK  status: ('A' for Active; 'I' for Inactive)
REMARK    1  A    between atoms: O1_2  and  C2_3 
REMARK    2  A    between atoms: C5_6  and  N1_7 
REMARK    3  A    between atoms: N1_7  and  C6_8 
REMARK    4  A    between atoms: C15_20  and  P1_21 
ROOT
HETATM    1  C2  UNL     1      22.082   2.220  51.210  1.00  0.00     0.080 A 
HETATM    2  C3  UNL     1      23.135   1.457  51.650  1.00  0.00     0.055 A 
HETATM    3  C4  UNL     1      23.107   0.625  52.740  1.00  0.00     0.041 A 
HETATM    4  C5  UNL     1      24.200  -0.127  53.146  1.00  0.00     0.142 A 
HETATM    5  N2  UNL     1      24.035  -0.898  54.232  1.00  0.00    -0.224 NA
HETATM    6  C12 UNL     1      22.878  -0.958  54.912  1.00  0.00     0.236 A 
HETATM    7  N3  UNL     1      21.800  -0.217  54.511  1.00  0.00    -0.241 NA
HETATM    8  C13 UNL     1      21.915   0.571  53.429  1.00  0.00     0.073 A 
HETATM    9  C14 UNL     1      20.830   1.321  53.026  1.00  0.00     0.047 A 
HETATM   10  C15 UNL     1      20.888   2.162  51.905  1.00  0.00     0.001 A 
ENDROOT
BRANCH   4  11
HETATM   11  N1  UNL     1      25.350   0.056  52.316  1.00  0.00    -0.340 N 
HETATM   12  H5  UNL     1      25.373  -0.136  51.308  1.00  0.00     0.167 HD
BRANCH  11  13
HETATM   13  C6  UNL     1      26.601   0.532  52.856  1.00  0.00     0.035 A 
HETATM   14  C7  UNL     1      26.828   1.853  53.191  1.00  0.00     0.029 A 
HETATM   15  C8  UNL     1      28.018   2.286  53.704  1.00  0.00     0.004 A 
HETATM   16  C9  UNL     1      29.067   1.380  53.911  1.00  0.00     0.024 A 
HETATM   17  C10 UNL     1      28.882   0.054  53.591  1.00  0.00     0.036 A 
HETATM   18 CL1  UNL     1      30.192  -1.101  53.838  1.00  0.00    -0.084 Cl
HETATM   19  C11 UNL     1      27.661  -0.321  53.075  1.00  0.00     0.053 A 
ENDBRANCH  11  13
ENDBRANCH   4  11
BRANCH   1  20
HETATM   20  O1  UNL     1      22.052   3.069  50.125  1.00  0.00    -0.355 OA
HETATM   21  C1  UNL     1      22.938   4.154  50.060  1.00  0.00     0.210 C 
ENDBRANCH   1  20
BRANCH  10  22
HETATM   22  P1  UNL     1      19.365   3.106  51.488  1.00  0.00    -0.096 P 
HETATM   23  C16 UNL     1      18.361   2.122  50.268  1.00  0.00     0.046 C 
HETATM   24  H12 UNL     1      18.601   3.353  52.704  1.00  0.00     0.062 HD
ENDBRANCH  10  22
TORSDOF 4
ENDMDL
MODEL 7
REMARK VINA RESULT:      -7.0      8.674     11.930
REMARK  4 active torsions:
REMARK  status: ('A' for Active; 'I' for Inactive)
REMARK    1  A    between atoms: O1_2  and  C2_3 
REMARK    2  A    between atoms: C5_6  and  N1_7 
REMARK    3  A    between atoms: N1_7  and  C6_8 
REMARK    4  A    between atoms: C15_20  and  P1_21 
ROOT
HETATM    1  C2  UNL     1      31.874   5.173  47.995  1.00  0.00     0.080 A 
HETATM    2  C3  UNL     1      30.598   5.680  47.981  1.00  0.00     0.055 A 
HETATM    3  C4  UNL     1      30.238   6.926  48.428  1.00  0.00     0.041 A 
HETATM    4  C5  UNL     1      28.932   7.394  48.394  1.00  0.00     0.142 A 
HETATM    5  N2  UNL     1      28.720   8.632  48.866  1.00  0.00    -0.224 NA
HETATM    6  C12 UNL     1      29.706   9.403  49.353  1.00  0.00     0.236 A 
HETATM    7  N3  UNL     1      30.994   8.942  49.386  1.00  0.00    -0.241 NA
HETATM    8  C13 UNL     1      31.258   7.708  48.925  1.00  0.00     0.073 A 
HETATM    9  C14 UNL     1      32.555   7.241  48.961  1.00  0.00     0.047 A 
HETATM   10  C15 UNL     1      32.893   5.962  48.496  1.00  0.00     0.001 A 
ENDROOT
BRANCH   4  11
HETATM   11  N1  UNL     1      28.009   6.448  47.849  1.00  0.00    -0.340 N 
HETATM   12  H5  UNL     1      27.921   6.234  46.848  1.00  0.00     0.167 HD
BRANCH  11  13
HETATM   13  C6  UNL     1      27.100   5.709  48.693  1.00  0.00     0.035 A 
HETATM   14  C7  UNL     1      27.217   4.353  48.928  1.00  0.00     0.029 A 
HETATM   15  C8  UNL     1      26.351   3.670  49.733  1.00  0.00     0.004 A 
HETATM   16  C9  UNL     1      25.293   4.343  50.359  1.00  0.00     0.024 A 
HETATM   17  C10 UNL     1      25.140   5.695  50.151  1.00  0.00     0.036 A 
HETATM   18 CL1  UNL     1      23.811   6.558  50.926  1.00  0.00    -0.084 Cl
HETATM   19  C11 UNL     1      26.045   6.327  49.328  1.00  0.00     0.053 A 
ENDBRANCH  11  13
ENDBRANCH   4  11
BRANCH   1  20
HETATM   20  O1  UNL     1      32.292   3.934  47.560  1.00  0.00    -0.355 OA
HETATM   21  C1  UNL     1      32.397   3.673  46.185  1.00  0.00     0.210 C 
ENDBRANCH   1  20
BRANCH  10  22
HETATM   22  P1  UNL     1      34.663   5.471  48.610  1.00  0.00    -0.096 P 
HETATM   23  C16 UNL     1      35.717   7.004  48.586  1.00  0.00     0.046 C 
HETATM   24  H12 UNL     1      34.877   4.717  49.838  1.00  0.00     0.062 HD
ENDBRANCH  10  22
TORSDOF 4
ENDMDL
MODEL 8
REMARK VINA RESULT:      -7.0      4.036      7.517
REMARK  4 active torsions:
REMARK  status: ('A' for Active; 'I' for Inactive)
REMARK    1  A    between atoms: O1_2  and  C2_3 
REMARK    2  A    between atoms: C5_6  and  N1_7 
REMARK    3  A    between atoms: N1_7  and  C6_8 
REMARK    4  A    between atoms: C15_20  and  P1_21 
ROOT
HETATM    1  C2  UNL     1      25.170  -0.205  53.817  1.00  0.00     0.080 A 
HETATM    2  C3  UNL     1      23.941   0.332  53.520  1.00  0.00     0.055 A 
HETATM    3  C4  UNL     1      23.690   1.212  52.499  1.00  0.00     0.041 A 
HETATM    4  C5  UNL     1      22.429   1.729  52.239  1.00  0.00     0.142 A 
HETATM    5  N2  UNL     1      22.325   2.584  51.209  1.00  0.00    -0.224 NA
HETATM    6  C12 UNL     1      23.375   2.939  50.451  1.00  0.00     0.236 A 
HETATM    7  N3  UNL     1      24.618   2.429  50.707  1.00  0.00    -0.241 NA
HETATM    8  C13 UNL     1      24.774   1.569  51.727  1.00  0.00     0.073 A 
HETATM    9  C14 UNL     1      26.028   1.057  51.988  1.00  0.00     0.047 A 
HETATM   10  C15 UNL     1      26.254   0.157  53.039  1.00  0.00     0.001 A 
ENDROOT
BRANCH   4  11
HETATM   11  N1  UNL     1      21.427   1.251  53.140  1.00  0.00    -0.340 N 
HETATM   12  H5  UNL     1      21.490   1.315  54.163  1.00  0.00     0.167 HD
BRANCH  11  13
HETATM   13  C6  UNL     1      20.222   0.618  52.660  1.00  0.00     0.035 A 
HETATM   14  C7  UNL     1      19.549   1.031  51.527  1.00  0.00     0.029 A 
HETATM   15  C8  UNL     1      18.411   0.418  51.085  1.00  0.00     0.004 A 
HETATM   16  C9  UNL     1      17.882  -0.675  51.785  1.00  0.00     0.024 A 
HETATM   17  C10 UNL     1      18.522  -1.118  52.921  1.00  0.00     0.036 A 
HETATM   18 CL1  UNL     1      17.868  -2.488  53.819  1.00  0.00    -0.084 Cl
HETATM   19  C11 UNL     1      19.664  -0.458  53.317  1.00  0.00     0.053 A 
ENDBRANCH  11  13
ENDBRANCH   4  11
BRANCH   1  20
HETATM   20  O1  UNL     1      25.480  -1.092  54.825  1.00  0.00    -0.355 OA
HETATM   21  C1  UNL     1      24.563  -1.323  55.862  1.00  0.00     0.210 C 
ENDBRANCH   1  20
BRANCH  10  22
HETATM   22  P1  UNL     1      27.979  -0.441  53.273  1.00  0.00    -0.096 P 
HETATM   23  C16 UNL     1      29.062   1.004  53.722  1.00  0.00     0.046 C 
HETATM   24  H12 UNL     1      28.003  -1.450  54.323  1.00  0.00     0.062 HD
ENDBRANCH  10  22
TORSDOF 4
ENDMDL
MODEL 9
REMARK VINA RESULT:      -7.0      3.840      6.389
REMARK  4 active torsions:
REMARK  status: ('A' for Active; 'I' for Inactive)
REMARK    1  A    between atoms: O1_2  and  C2_3 
REMARK    2  A    between atoms: C5_6  and  N1_7 
REMARK    3  A    between atoms: N1_7  and  C6_8 
REMARK    4  A    between atoms: C15_20  and  P1_21 
ROOT
HETATM    1  C2  UNL     1      25.815   1.389  52.414  1.00  0.00     0.080 A 
HETATM    2  C3  UNL     1      24.463   1.634  52.389  1.00  0.00     0.055 A 
HETATM    3  C4  UNL     1      23.510   0.865  53.005  1.00  0.00     0.041 A 
HETATM    4  C5  UNL     1      22.154   1.154  52.950  1.00  0.00     0.142 A 
HETATM    5  N2  UNL     1      21.329   0.316  53.597  1.00  0.00    -0.224 NA
HETATM    6  C12 UNL     1      21.769  -0.758  54.273  1.00  0.00     0.236 A 
HETATM    7  N3  UNL     1      23.106  -1.042  54.328  1.00  0.00    -0.241 NA
HETATM    8  C13 UNL     1      23.972  -0.233  53.697  1.00  0.00     0.073 A 
HETATM    9  C14 UNL     1      25.320  -0.520  53.749  1.00  0.00     0.047 A 
HETATM   10  C15 UNL     1      26.273   0.286  53.109  1.00  0.00     0.001 A 
ENDROOT
BRANCH   4  11
HETATM   11  N1  UNL     1      21.858   2.328  52.189  1.00  0.00    -0.340 N 
HETATM   12  H5  UNL     1      21.593   3.232  52.598  1.00  0.00     0.167 HD
BRANCH  11  13
HETATM   13  C6  UNL     1      21.904   2.322  50.746  1.00  0.00     0.035 A 
HETATM   14  C7  UNL     1      21.495   1.249  49.979  1.00  0.00     0.029 A 
HETATM   15  C8  UNL     1      21.542   1.261  48.614  1.00  0.00     0.004 A 
HETATM   16  C9  UNL     1      22.017   2.392  47.936  1.00  0.00     0.024 A 
HETATM   17  C10 UNL     1      22.435   3.484  48.663  1.00  0.00     0.036 A 
HETATM   18 CL1  UNL     1      23.042   4.915  47.829  1.00  0.00    -0.084 Cl
HETATM   19  C11 UNL     1      22.365   3.410  50.037  1.00  0.00     0.053 A 
ENDBRANCH  11  13
ENDBRANCH   4  11
BRANCH   1  20
HETATM   20  O1  UNL     1      26.815   2.126  51.817  1.00  0.00    -0.355 OA
HETATM   21  C1  UNL     1      26.547   2.854  50.649  1.00  0.00     0.210 C 
ENDBRANCH   1  20
BRANCH  10  22
HETATM   22  P1  UNL     1      28.035  -0.222  53.260  1.00  0.00    -0.096 P 
HETATM   23  C16 UNL     1      28.650   0.232  54.957  1.00  0.00     0.046 C 
HETATM   24  H12 UNL     1      28.145  -1.658  53.039  1.00  0.00     0.062 HD
ENDBRANCH  10  22
TORSDOF 4
ENDMDL
