MODEL 1
REMARK VINA RESULT:      -8.9      0.000      0.000
REMARK  2 active torsions:
REMARK  status: ('A' for Active; 'I' for Inactive)
REMARK    1  A    between atoms: C15_22  and  N6_23 
REMARK    2  A    between atoms: N6_23  and  C16_24 
ROOT
HETATM    1  O1  UNL     1      34.938   4.972  47.656  1.00  0.00    -0.299 OA
HETATM    2  C1  UNL     1      34.535   3.926  47.378  1.00  0.00     0.199 C 
HETATM    3  C2  UNL     1      34.062   4.159  46.216  1.00  0.00    -0.023 C 
HETATM    4  C3  UNL     1      33.687   4.376  45.271  1.00  0.00    -0.096 C 
HETATM    5  C4  UNL     1      33.156   4.718  43.940  1.00  0.00     0.114 C 
HETATM    6  C5  UNL     1      33.118   6.213  44.450  1.00  0.00     0.136 C 
HETATM    7  N1  UNL     1      32.803   7.386  44.004  1.00  0.00    -0.362 N 
HETATM    8  C6  UNL     1      32.294   8.315  43.001  1.00  0.00     0.153 C 
HETATM    9  C7  UNL     1      33.660   8.811  42.449  1.00  0.00     0.223 C 
HETATM   10  O2  UNL     1      34.565   8.116  43.378  1.00  0.00    -0.253 OA
HETATM   11  N2  UNL     1      34.391   8.596  44.696  1.00  0.00    -0.117 NA
HETATM   12  C8  UNL     1      33.274   8.179  45.214  1.00  0.00     0.172 C 
HETATM   13  C9  UNL     1      33.075   8.624  46.776  1.00  0.00     0.194 A 
HETATM   14  C10 UNL     1      33.753   7.438  47.445  1.00  0.00     0.022 C 
HETATM   15  C11 UNL     1      34.905   7.344  48.244  1.00  0.00    -0.000 C 
HETATM   16  C12 UNL     1      35.840   6.408  49.030  1.00  0.00     0.026 C 
HETATM   17  C13 UNL     1      35.173   5.203  48.619  1.00  0.00     0.256 C 
HETATM   18  N3  UNL     1      35.038   3.609  48.653  1.00  0.00    -0.333 N 
HETATM   19  N4  UNL     1      33.770   9.816  46.854  1.00  0.00    -0.252 NA
HETATM   20  C14 UNL     1      32.893  10.793  47.107  1.00  0.00     0.231 A 
HETATM   21  N5  UNL     1      31.552  10.144  47.195  1.00  0.00    -0.225 NA
HETATM   22  C15 UNL     1      31.748   8.913  47.005  1.00  0.00     0.148 A 
HETATM   23  H13 UNL     1      35.246   2.916  49.335  1.00  0.00     0.165 HD
ENDROOT
BRANCH  22  24
HETATM   24  N6  UNL     1      30.525   8.294  47.127  1.00  0.00    -0.342 N 
HETATM   25  H15 UNL     1      29.961   8.712  46.287  1.00  0.00     0.167 HD
BRANCH  24  26
HETATM   26  C16 UNL     1      29.502   7.508  47.599  1.00  0.00     0.035 A 
HETATM   27  C17 UNL     1      29.847   6.231  47.957  1.00  0.00     0.032 A 
HETATM   28  C18 UNL     1      28.867   5.336  48.327  1.00  0.00     0.046 A 
HETATM   29  C19 UNL     1      27.576   5.822  48.307  1.00  0.00     0.138 A 
HETATM   30  F1  UNL     1      26.494   5.036  48.618  1.00  0.00    -0.204 F 
HETATM   31  C20 UNL     1      27.160   7.094  47.962  1.00  0.00     0.074 A 
HETATM   32 CL1  UNL     1      25.569   7.734  47.894  1.00  0.00    -0.081 Cl
HETATM   33  C21 UNL     1      28.175   7.962  47.592  1.00  0.00     0.056 A 
ENDBRANCH  24  26
ENDBRANCH  22  24
TORSDOF 2
ENDMDL
MODEL 2
REMARK VINA RESULT:      -7.9     16.278     19.310
REMARK  2 active torsions:
REMARK  status: ('A' for Active; 'I' for Inactive)
REMARK    1  A    between atoms: C15_22  and  N6_23 
REMARK    2  A    between atoms: N6_23  and  C16_24 
ROOT
HETATM    1  O1  UNL     1      18.762  -1.127  52.783  1.00  0.00    -0.299 OA
HETATM    2  C1  UNL     1      18.545  -1.814  53.687  1.00  0.00     0.199 C 
HETATM    3  C2  UNL     1      17.437  -2.333  53.324  1.00  0.00    -0.023 C 
HETATM    4  C3  UNL     1      16.537  -2.742  53.003  1.00  0.00    -0.096 C 
HETATM    5  C4  UNL     1      15.258  -3.296  52.526  1.00  0.00     0.114 C 
HETATM    6  C5  UNL     1      15.164  -2.015  51.604  1.00  0.00     0.136 C 
HETATM    7  N1  UNL     1      14.370  -1.513  50.714  1.00  0.00    -0.362 N 
HETATM    8  C6  UNL     1      13.158  -1.486  49.903  1.00  0.00     0.153 C 
HETATM    9  C7  UNL     1      13.758  -2.066  48.592  1.00  0.00     0.223 C 
HETATM   10  O2  UNL     1      15.174  -2.146  48.988  1.00  0.00    -0.253 OA
HETATM   11  N2  UNL     1      15.702  -0.855  49.212  1.00  0.00    -0.117 NA
HETATM   12  C8  UNL     1      15.252  -0.339  50.318  1.00  0.00     0.172 C 
HETATM   13  C9  UNL     1      15.915   1.115  50.675  1.00  0.00     0.194 A 
HETATM   14  C10 UNL     1      17.122   0.634  51.465  1.00  0.00     0.022 C 
HETATM   15  C11 UNL     1      18.502   0.736  51.224  1.00  0.00    -0.000 C 
HETATM   16  C12 UNL     1      19.915   0.399  51.732  1.00  0.00     0.026 C 
HETATM   17  C13 UNL     1      19.456  -0.385  52.846  1.00  0.00     0.256 C 
HETATM   18  N3  UNL     1      19.763  -1.276  54.139  1.00  0.00    -0.333 N 
HETATM   19  N4  UNL     1      16.202   1.643  49.430  1.00  0.00    -0.252 NA
HETATM   20  C14 UNL     1      15.438   2.725  49.251  1.00  0.00     0.231 A 
HETATM   21  N5  UNL     1      14.620   2.874  50.490  1.00  0.00    -0.225 NA
HETATM   22  C15 UNL     1      14.960   1.925  51.247  1.00  0.00     0.148 A 
HETATM   23  H13 UNL     1      20.496  -1.281  54.811  1.00  0.00     0.165 HD
ENDROOT
BRANCH  22  24
HETATM   24  N6  UNL     1      14.245   2.074  52.414  1.00  0.00    -0.342 N 
HETATM   25  H15 UNL     1      14.856   2.785  52.980  1.00  0.00     0.167 HD
BRANCH  24  26
HETATM   26  C16 UNL     1      13.278   1.928  53.379  1.00  0.00     0.035 A 
HETATM   27  C17 UNL     1      12.699   3.087  53.825  1.00  0.00     0.032 A 
HETATM   28  C18 UNL     1      11.809   3.047  54.875  1.00  0.00     0.046 A 
HETATM   29  C19 UNL     1      11.564   1.796  55.403  1.00  0.00     0.138 A 
HETATM   30  F1  UNL     1      10.725   1.605  56.473  1.00  0.00    -0.204 F 
HETATM   31  C20 UNL     1      12.108   0.591  55.001  1.00  0.00     0.074 A 
HETATM   32 CL1  UNL     1      11.857  -0.980  55.644  1.00  0.00    -0.081 Cl
HETATM   33  C21 UNL     1      13.002   0.675  53.945  1.00  0.00     0.056 A 
ENDBRANCH  24  26
ENDBRANCH  22  24
TORSDOF 2
ENDMDL
MODEL 3
REMARK VINA RESULT:      -7.8      6.751      9.334
REMARK  2 active torsions:
REMARK  status: ('A' for Active; 'I' for Inactive)
REMARK    1  A    between atoms: C15_22  and  N6_23 
REMARK    2  A    between atoms: N6_23  and  C16_24 
ROOT
HETATM    1  O1  UNL     1      24.999   3.630  51.341  1.00  0.00    -0.299 OA
HETATM    2  C1  UNL     1      25.586   2.789  50.809  1.00  0.00     0.199 C 
HETATM    3  C2  UNL     1      26.319   3.478  50.023  1.00  0.00    -0.023 C 
HETATM    4  C3  UNL     1      26.906   4.062  49.395  1.00  0.00    -0.096 C 
HETATM    5  C4  UNL     1      27.715   4.917  48.510  1.00  0.00     0.114 C 
HETATM    6  C5  UNL     1      26.600   6.017  48.720  1.00  0.00     0.136 C 
HETATM    7  N1  UNL     1      26.353   7.235  48.359  1.00  0.00    -0.362 N 
HETATM    8  C6  UNL     1      26.628   8.468  47.629  1.00  0.00     0.153 C 
HETATM    9  C7  UNL     1      27.273   9.271  48.793  1.00  0.00     0.223 C 
HETATM   10  O2  UNL     1      27.073   8.312  49.891  1.00  0.00    -0.253 OA
HETATM   11  N2  UNL     1      25.695   8.135  50.153  1.00  0.00    -0.117 NA
HETATM   12  C8  UNL     1      25.116   7.438  49.220  1.00  0.00     0.172 C 
HETATM   13  C9  UNL     1      23.541   7.119  49.529  1.00  0.00     0.194 A 
HETATM   14  C10 UNL     1      23.714   5.821  50.302  1.00  0.00     0.022 C 
HETATM   15  C11 UNL     1      23.424   5.476  51.633  1.00  0.00    -0.000 C 
HETATM   16  C12 UNL     1      23.461   4.369  52.702  1.00  0.00     0.026 C 
HETATM   17  C13 UNL     1      24.154   3.424  51.870  1.00  0.00     0.256 C 
HETATM   18  N3  UNL     1      24.805   1.979  51.652  1.00  0.00    -0.333 N 
HETATM   19  N4  UNL     1      23.143   8.204  50.287  1.00  0.00    -0.252 NA
HETATM   20  C14 UNL     1      22.230   8.887  49.590  1.00  0.00     0.231 A 
HETATM   21  N5  UNL     1      22.051   8.157  48.300  1.00  0.00    -0.225 NA
HETATM   22  C15 UNL     1      22.825   7.163  48.354  1.00  0.00     0.148 A 
HETATM   23  H13 UNL     1      24.604   1.074  52.013  1.00  0.00     0.165 HD
ENDROOT
BRANCH  22  24
HETATM   24  N6  UNL     1      22.639   6.454  47.188  1.00  0.00    -0.342 N 
HETATM   25  H15 UNL     1      23.647   6.428  46.760  1.00  0.00     0.167 HD
BRANCH  24  26
HETATM   26  C16 UNL     1      22.041   5.756  46.167  1.00  0.00     0.035 A 
HETATM   27  C17 UNL     1      21.915   4.406  46.359  1.00  0.00     0.032 A 
HETATM   28  C18 UNL     1      21.438   3.611  45.340  1.00  0.00     0.046 A 
HETATM   29  C19 UNL     1      21.113   4.270  44.172  1.00  0.00     0.138 A 
HETATM   30  F1  UNL     1      20.657   3.604  43.061  1.00  0.00    -0.204 F 
HETATM   31  C20 UNL     1      21.211   5.623  43.912  1.00  0.00     0.074 A 
HETATM   32 CL1  UNL     1      20.847   6.480  42.471  1.00  0.00    -0.081 Cl
HETATM   33  C21 UNL     1      21.699   6.387  44.961  1.00  0.00     0.056 A 
ENDBRANCH  24  26
ENDBRANCH  22  24
TORSDOF 2
ENDMDL
MODEL 4
REMARK VINA RESULT:      -7.8      2.046      3.770
REMARK  2 active torsions:
REMARK  status: ('A' for Active; 'I' for Inactive)
REMARK    1  A    between atoms: C15_22  and  N6_23 
REMARK    2  A    between atoms: N6_23  and  C16_24 
ROOT
HETATM    1  O1  UNL     1      33.511   5.611  43.429  1.00  0.00    -0.299 OA
HETATM    2  C1  UNL     1      32.840   5.824  42.513  1.00  0.00     0.199 C 
HETATM    3  C2  UNL     1      32.444   7.006  42.785  1.00  0.00    -0.023 C 
HETATM    4  C3  UNL     1      32.138   7.970  43.029  1.00  0.00    -0.096 C 
HETATM    5  C4  UNL     1      31.714   9.328  43.408  1.00  0.00     0.114 C 
HETATM    6  C5  UNL     1      32.081   8.920  44.890  1.00  0.00     0.136 C 
HETATM    7  N1  UNL     1      32.092   9.449  46.071  1.00  0.00    -0.362 N 
HETATM    8  C6  UNL     1      31.848  10.520  47.031  1.00  0.00     0.153 C 
HETATM    9  C7  UNL     1      33.295  11.083  47.103  1.00  0.00     0.223 C 
HETATM   10  O2  UNL     1      33.983  10.095  46.255  1.00  0.00    -0.253 OA
HETATM   11  N2  UNL     1      33.949   8.816  46.854  1.00  0.00    -0.117 NA
HETATM   12  C8  UNL     1      32.762   8.288  46.789  1.00  0.00     0.172 C 
HETATM   13  C9  UNL     1      32.696   6.762  47.378  1.00  0.00     0.194 A 
HETATM   14  C10 UNL     1      33.032   6.005  46.102  1.00  0.00     0.022 C 
HETATM   15  C11 UNL     1      34.119   5.184  45.758  1.00  0.00    -0.000 C 
HETATM   16  C12 UNL     1      34.771   4.323  44.661  1.00  0.00     0.026 C 
HETATM   17  C13 UNL     1      33.803   4.662  43.654  1.00  0.00     0.256 C 
HETATM   18  N3  UNL     1      33.244   4.524  42.161  1.00  0.00    -0.333 N 
HETATM   19  N4  UNL     1      33.686   6.754  48.342  1.00  0.00    -0.252 NA
HETATM   20  C14 UNL     1      33.105   6.581  49.534  1.00  0.00     0.231 A 
HETATM   21  N5  UNL     1      31.639   6.469  49.276  1.00  0.00    -0.225 NA
HETATM   22  C15 UNL     1      31.497   6.574  48.028  1.00  0.00     0.148 A 
HETATM   23  H13 UNL     1      33.260   3.793  41.487  1.00  0.00     0.165 HD
ENDROOT
BRANCH  22  24
HETATM   24  N6  UNL     1      30.152   6.429  47.770  1.00  0.00    -0.342 N 
HETATM   25  H15 UNL     1      30.107   6.510  46.679  1.00  0.00     0.167 HD
BRANCH  24  26
HETATM   26  C16 UNL     1      28.800   6.263  47.949  1.00  0.00     0.035 A 
HETATM   27  C17 UNL     1      28.023   7.358  47.677  1.00  0.00     0.032 A 
HETATM   28  C18 UNL     1      26.672   7.321  47.942  1.00  0.00     0.046 A 
HETATM   29  C19 UNL     1      26.201   6.140  48.475  1.00  0.00     0.138 A 
HETATM   30  F1  UNL     1      24.883   5.968  48.822  1.00  0.00    -0.204 F 
HETATM   31  C20 UNL     1      26.924   5.000  48.770  1.00  0.00     0.074 A 
HETATM   32 CL1  UNL     1      26.388   3.522  49.458  1.00  0.00    -0.081 Cl
HETATM   33  C21 UNL     1      28.279   5.079  48.492  1.00  0.00     0.056 A 
ENDBRANCH  24  26
ENDBRANCH  22  24
TORSDOF 2
ENDMDL
MODEL 5
REMARK VINA RESULT:      -7.7      4.897      7.570
REMARK  2 active torsions:
REMARK  status: ('A' for Active; 'I' for Inactive)
REMARK    1  A    between atoms: C15_22  and  N6_23 
REMARK    2  A    between atoms: N6_23  and  C16_24 
ROOT
HETATM    1  O1  UNL     1      25.454   5.800  50.141  1.00  0.00    -0.299 OA
HETATM    2  C1  UNL     1      25.650   4.762  49.671  1.00  0.00     0.199 C 
HETATM    3  C2  UNL     1      26.764   4.976  49.087  1.00  0.00    -0.023 C 
HETATM    4  C3  UNL     1      27.672   5.177  48.622  1.00  0.00    -0.096 C 
HETATM    5  C4  UNL     1      28.952   5.496  47.966  1.00  0.00     0.114 C 
HETATM    6  C5  UNL     1      28.496   7.008  48.038  1.00  0.00     0.136 C 
HETATM    7  N1  UNL     1      28.950   8.177  47.721  1.00  0.00    -0.362 N 
HETATM    8  C6  UNL     1      29.928   9.092  47.143  1.00  0.00     0.153 C 
HETATM    9  C7  UNL     1      30.638   9.514  48.461  1.00  0.00     0.223 C 
HETATM   10  O2  UNL     1      29.783   8.813  49.433  1.00  0.00    -0.253 OA
HETATM   11  N2  UNL     1      28.473   9.343  49.417  1.00  0.00    -0.117 NA
HETATM   12  C8  UNL     1      27.826   8.990  48.346  1.00  0.00     0.172 C 
HETATM   13  C9  UNL     1      26.269   9.493  48.331  1.00  0.00     0.194 A 
HETATM   14  C10 UNL     1      25.632   8.304  49.032  1.00  0.00     0.022 C 
HETATM   15  C11 UNL     1      24.955   8.189  50.258  1.00  0.00    -0.000 C 
HETATM   16  C12 UNL     1      24.236   7.242  51.236  1.00  0.00     0.026 C 
HETATM   17  C13 UNL     1      24.530   6.052  50.485  1.00  0.00     0.256 C 
HETATM   18  N3  UNL     1      24.424   4.467  50.295  1.00  0.00    -0.333 N 
HETATM   19  N4  UNL     1      26.308  10.658  49.074  1.00  0.00    -0.252 NA
HETATM   20  C14 UNL     1      26.002  11.678  48.266  1.00  0.00     0.231 A 
HETATM   21  N5  UNL     1      25.749  11.088  46.919  1.00  0.00    -0.225 NA
HETATM   22  C15 UNL     1      25.914   9.844  47.048  1.00  0.00     0.148 A 
HETATM   23  H13 UNL     1      23.742   3.789  50.548  1.00  0.00     0.165 HD
ENDROOT
BRANCH  22  24
HETATM   24  N6  UNL     1      25.641   9.280  45.822  1.00  0.00    -0.342 N 
HETATM   25  H15 UNL     1      26.634   9.205  45.367  1.00  0.00     0.167 HD
BRANCH  24  26
HETATM   26  C16 UNL     1      24.962   8.750  44.752  1.00  0.00     0.035 A 
HETATM   27  C17 UNL     1      25.254   9.294  43.530  1.00  0.00     0.032 A 
HETATM   28  C18 UNL     1      24.535   8.909  42.420  1.00  0.00     0.046 A 
HETATM   29  C19 UNL     1      23.550   7.970  42.643  1.00  0.00     0.138 A 
HETATM   30  F1  UNL     1      22.731   7.516  41.638  1.00  0.00    -0.204 F 
HETATM   31  C20 UNL     1      23.205   7.379  43.844  1.00  0.00     0.074 A 
HETATM   32 CL1  UNL     1      21.973   6.232  44.174  1.00  0.00    -0.081 Cl
HETATM   33  C21 UNL     1      23.949   7.796  44.936  1.00  0.00     0.056 A 
ENDBRANCH  24  26
ENDBRANCH  22  24
TORSDOF 2
ENDMDL
MODEL 6
REMARK VINA RESULT:      -7.7      1.693      2.074
REMARK  2 active torsions:
REMARK  status: ('A' for Active; 'I' for Inactive)
REMARK    1  A    between atoms: C15_22  and  N6_23 
REMARK    2  A    between atoms: N6_23  and  C16_24 
ROOT
HETATM    1  O1  UNL     1      34.374   6.353  46.827  1.00  0.00    -0.299 OA
HETATM    2  C1  UNL     1      34.234   5.389  46.204  1.00  0.00     0.199 C 
HETATM    3  C2  UNL     1      33.513   5.833  45.249  1.00  0.00    -0.023 C 
HETATM    4  C3  UNL     1      32.929   6.220  44.481  1.00  0.00    -0.096 C 
HETATM    5  C4  UNL     1      32.094   6.796  43.413  1.00  0.00     0.114 C 
HETATM    6  C5  UNL     1      31.735   7.935  44.448  1.00  0.00     0.136 C 
HETATM    7  N1  UNL     1      31.032   9.021  44.497  1.00  0.00    -0.362 N 
HETATM    8  C6  UNL     1      30.113  10.014  43.950  1.00  0.00     0.153 C 
HETATM    9  C7  UNL     1      31.165  11.081  43.535  1.00  0.00     0.223 C 
HETATM   10  O2  UNL     1      32.380  10.447  44.074  1.00  0.00    -0.253 OA
HETATM   11  N2  UNL     1      32.319  10.373  45.484  1.00  0.00    -0.117 NA
HETATM   12  C8  UNL     1      31.474   9.469  45.881  1.00  0.00     0.172 C 
HETATM   13  C9  UNL     1      31.444   9.274  47.506  1.00  0.00     0.194 A 
HETATM   14  C10 UNL     1      32.533   8.221  47.635  1.00  0.00     0.022 C 
HETATM   15  C11 UNL     1      33.790   8.243  48.262  1.00  0.00    -0.000 C 
HETATM   16  C12 UNL     1      35.074   7.454  48.576  1.00  0.00     0.026 C 
HETATM   17  C13 UNL     1      34.705   6.310  47.789  1.00  0.00     0.256 C 
HETATM   18  N3  UNL     1      35.026   4.845  47.231  1.00  0.00    -0.333 N 
HETATM   19  N4  UNL     1      31.783  10.528  47.979  1.00  0.00    -0.252 NA
HETATM   20  C14 UNL     1      30.730  11.024  48.637  1.00  0.00     0.231 A 
HETATM   21  N5  UNL     1      29.661   9.985  48.564  1.00  0.00    -0.225 NA
HETATM   22  C15 UNL     1      30.153   9.023  47.913  1.00  0.00     0.148 A 
HETATM   23  H13 UNL     1      35.537   4.071  47.589  1.00  0.00     0.165 HD
ENDROOT
BRANCH  22  24
HETATM   24  N6  UNL     1      29.192   8.038  47.876  1.00  0.00    -0.342 N 
HETATM   25  H15 UNL     1      29.052   7.881  46.801  1.00  0.00     0.167 HD
BRANCH  24  26
HETATM   26  C16 UNL     1      28.259   7.110  48.270  1.00  0.00     0.035 A 
HETATM   27  C17 UNL     1      28.698   5.814  48.336  1.00  0.00     0.032 A 
HETATM   28  C18 UNL     1      27.803   4.802  48.604  1.00  0.00     0.046 A 
HETATM   29  C19 UNL     1      26.495   5.197  48.796  1.00  0.00     0.138 A 
HETATM   30  F1  UNL     1      25.487   4.296  49.039  1.00  0.00    -0.204 F 
HETATM   31  C20 UNL     1      25.987   6.481  48.748  1.00  0.00     0.074 A 
HETATM   32 CL1  UNL     1      24.369   7.016  48.950  1.00  0.00    -0.081 Cl
HETATM   33  C21 UNL     1      26.918   7.469  48.471  1.00  0.00     0.056 A 
ENDBRANCH  24  26
ENDBRANCH  22  24
TORSDOF 2
ENDMDL
MODEL 7
REMARK VINA RESULT:      -7.6      7.359     11.381
REMARK  2 active torsions:
REMARK  status: ('A' for Active; 'I' for Inactive)
REMARK    1  A    between atoms: C15_22  and  N6_23 
REMARK    2  A    between atoms: N6_23  and  C16_24 
ROOT
HETATM    1  O1  UNL     1      21.018   8.491  47.783  1.00  0.00    -0.299 OA
HETATM    2  C1  UNL     1      21.496   8.724  46.757  1.00  0.00     0.199 C 
HETATM    3  C2  UNL     1      21.765   7.545  46.351  1.00  0.00    -0.023 C 
HETATM    4  C3  UNL     1      21.971   6.573  46.043  1.00  0.00    -0.096 C 
HETATM    5  C4  UNL     1      22.260   5.186  45.641  1.00  0.00     0.114 C 
HETATM    6  C5  UNL     1      22.198   4.833  47.181  1.00  0.00     0.136 C 
HETATM    7  N1  UNL     1      22.306   3.797  47.947  1.00  0.00    -0.362 N 
HETATM    8  C6  UNL     1      22.553   2.384  48.215  1.00  0.00     0.153 C 
HETATM    9  C7  UNL     1      21.073   1.918  48.314  1.00  0.00     0.223 C 
HETATM   10  O2  UNL     1      20.399   3.221  48.196  1.00  0.00    -0.253 OA
HETATM   11  N2  UNL     1      20.706   4.043  49.304  1.00  0.00    -0.117 NA
HETATM   12  C8  UNL     1      21.927   4.486  49.249  1.00  0.00     0.172 C 
HETATM   13  C9  UNL     1      22.297   5.526  50.457  1.00  0.00     0.194 A 
HETATM   14  C10 UNL     1      21.866   6.822  49.790  1.00  0.00     0.022 C 
HETATM   15  C11 UNL     1      20.861   7.751  50.107  1.00  0.00    -0.000 C 
HETATM   16  C12 UNL     1      20.165   9.065  49.708  1.00  0.00     0.026 C 
HETATM   17  C13 UNL     1      20.900   9.221  48.483  1.00  0.00     0.256 C 
HETATM   18  N3  UNL     1      21.223  10.047  47.151  1.00  0.00    -0.333 N 
HETATM   19  N4  UNL     1      21.488   5.103  51.495  1.00  0.00    -0.252 NA
HETATM   20  C14 UNL     1      22.272   4.648  52.477  1.00  0.00     0.231 A 
HETATM   21  N5  UNL     1      23.678   4.810  52.003  1.00  0.00    -0.225 NA
HETATM   22  C15 UNL     1      23.600   5.323  50.853  1.00  0.00     0.148 A 
HETATM   23  H13 UNL     1      21.199  11.013  46.920  1.00  0.00     0.165 HD
ENDROOT
BRANCH  22  24
HETATM   24  N6  UNL     1      24.892   5.519  50.420  1.00  0.00    -0.342 N 
HETATM   25  H15 UNL     1      25.464   5.489  51.353  1.00  0.00     0.167 HD
BRANCH  24  26
HETATM   26  C16 UNL     1      25.975   5.745  49.605  1.00  0.00     0.035 A 
HETATM   27  C17 UNL     1      26.697   4.637  49.250  1.00  0.00     0.032 A 
HETATM   28  C18 UNL     1      27.866   4.783  48.535  1.00  0.00     0.046 A 
HETATM   29  C19 UNL     1      28.218   6.080  48.224  1.00  0.00     0.138 A 
HETATM   30  F1  UNL     1      29.373   6.381  47.545  1.00  0.00    -0.204 F 
HETATM   31  C20 UNL     1      27.537   7.238  48.546  1.00  0.00     0.074 A 
HETATM   32 CL1  UNL     1      27.949   8.869  48.207  1.00  0.00    -0.081 Cl
HETATM   33  C21 UNL     1      26.369   7.049  49.268  1.00  0.00     0.056 A 
ENDBRANCH  24  26
ENDBRANCH  22  24
TORSDOF 2
ENDMDL
MODEL 8
REMARK VINA RESULT:      -7.5      1.893      4.762
REMARK  2 active torsions:
REMARK  status: ('A' for Active; 'I' for Inactive)
REMARK    1  A    between atoms: C15_22  and  N6_23 
REMARK    2  A    between atoms: N6_23  and  C16_24 
ROOT
HETATM    1  O1  UNL     1      32.737   6.618  42.664  1.00  0.00    -0.299 OA
HETATM    2  C1  UNL     1      32.053   7.487  42.328  1.00  0.00     0.199 C 
HETATM    3  C2  UNL     1      32.144   8.260  43.339  1.00  0.00    -0.023 C 
HETATM    4  C3  UNL     1      32.237   8.873  44.174  1.00  0.00    -0.096 C 
HETATM    5  C4  UNL     1      32.380   9.713  45.375  1.00  0.00     0.114 C 
HETATM    6  C5  UNL     1      32.800   8.388  46.128  1.00  0.00     0.136 C 
HETATM    7  N1  UNL     1      33.175   8.017  47.309  1.00  0.00    -0.362 N 
HETATM    8  C6  UNL     1      33.471   8.237  48.721  1.00  0.00     0.153 C 
HETATM    9  C7  UNL     1      35.017   8.352  48.604  1.00  0.00     0.223 C 
HETATM   10  O2  UNL     1      35.177   8.044  47.174  1.00  0.00    -0.253 OA
HETATM   11  N2  UNL     1      34.786   6.712  46.905  1.00  0.00    -0.117 NA
HETATM   12  C8  UNL     1      33.495   6.572  46.959  1.00  0.00     0.172 C 
HETATM   13  C9  UNL     1      32.986   5.070  46.553  1.00  0.00     0.194 A 
HETATM   14  C10 UNL     1      32.837   5.271  45.053  1.00  0.00     0.022 C 
HETATM   15  C11 UNL     1      33.501   4.691  43.959  1.00  0.00    -0.000 C 
HETATM   16  C12 UNL     1      33.634   4.643  42.426  1.00  0.00     0.026 C 
HETATM   17  C13 UNL     1      32.706   5.716  42.193  1.00  0.00     0.256 C 
HETATM   18  N3  UNL     1      31.915   6.676  41.187  1.00  0.00    -0.333 N 
HETATM   19  N4  UNL     1      34.044   4.266  46.935  1.00  0.00    -0.252 NA
HETATM   20  C14 UNL     1      33.627   3.472  47.925  1.00  0.00     0.231 A 
HETATM   21  N5  UNL     1      32.195   3.815  48.167  1.00  0.00    -0.225 NA
HETATM   22  C15 UNL     1      31.910   4.723  47.340  1.00  0.00     0.148 A 
HETATM   23  H13 UNL     1      31.571   6.565  40.261  1.00  0.00     0.165 HD
ENDROOT
BRANCH  22  24
HETATM   24  N6  UNL     1      30.578   5.020  47.521  1.00  0.00    -0.342 N 
HETATM   25  H15 UNL     1      30.081   4.111  47.168  1.00  0.00     0.167 HD
BRANCH  24  26
HETATM   26  C16 UNL     1      29.423   5.694  47.833  1.00  0.00     0.035 A 
HETATM   27  C17 UNL     1      29.468   7.055  47.689  1.00  0.00     0.032 A 
HETATM   28  C18 UNL     1      28.397   7.822  48.093  1.00  0.00     0.046 A 
HETATM   29  C19 UNL     1      27.330   7.125  48.623  1.00  0.00     0.138 A 
HETATM   30  F1  UNL     1      26.208   7.757  49.098  1.00  0.00    -0.204 F 
HETATM   31  C20 UNL     1      27.217   5.759  48.793  1.00  0.00     0.074 A 
HETATM   32 CL1  UNL     1      25.928   4.853  49.472  1.00  0.00    -0.081 Cl
HETATM   33  C21 UNL     1      28.317   5.024  48.378  1.00  0.00     0.056 A 
ENDBRANCH  24  26
ENDBRANCH  22  24
TORSDOF 2
ENDMDL
MODEL 9
REMARK VINA RESULT:      -7.5     15.939     19.642
REMARK  2 active torsions:
REMARK  status: ('A' for Active; 'I' for Inactive)
REMARK    1  A    between atoms: C15_22  and  N6_23 
REMARK    2  A    between atoms: N6_23  and  C16_24 
ROOT
HETATM    1  O1  UNL     1      12.903   2.739  53.468  1.00  0.00    -0.299 OA
HETATM    2  C1  UNL     1      13.351   3.790  53.292  1.00  0.00     0.199 C 
HETATM    3  C2  UNL     1      13.838   3.643  52.122  1.00  0.00    -0.023 C 
HETATM    4  C3  UNL     1      14.223   3.497  51.167  1.00  0.00    -0.096 C 
HETATM    5  C4  UNL     1      14.768   3.256  49.820  1.00  0.00     0.114 C 
HETATM    6  C5  UNL     1      14.739   1.720  50.194  1.00  0.00     0.136 C 
HETATM    7  N1  UNL     1      15.019   0.580  49.649  1.00  0.00    -0.362 N 
HETATM    8  C6  UNL     1      15.513  -0.273  48.574  1.00  0.00     0.153 C 
HETATM    9  C7  UNL     1      14.141  -0.664  47.957  1.00  0.00     0.223 C 
HETATM   10  O2  UNL     1      13.244  -0.020  48.930  1.00  0.00    -0.253 OA
HETATM   11  N2  UNL     1      13.373  -0.623  50.202  1.00  0.00    -0.117 NA
HETATM   12  C8  UNL     1      14.494  -0.298  50.774  1.00  0.00     0.172 C 
HETATM   13  C9  UNL     1      14.644  -0.889  52.293  1.00  0.00     0.194 A 
HETATM   14  C10 UNL     1      13.998   0.257  53.054  1.00  0.00     0.022 C 
HETATM   15  C11 UNL     1      12.835   0.325  53.839  1.00  0.00    -0.000 C 
HETATM   16  C12 UNL     1      11.920   1.222  54.691  1.00  0.00     0.026 C 
HETATM   17  C13 UNL     1      12.639   2.433  54.402  1.00  0.00     0.256 C 
HETATM   18  N3  UNL     1      12.834   4.011  54.582  1.00  0.00    -0.333 N 
HETATM   19  N4  UNL     1      13.904  -2.056  52.251  1.00  0.00    -0.252 NA
HETATM   20  C14 UNL     1      14.738  -3.085  52.429  1.00  0.00     0.231 A 
HETATM   21  N5  UNL     1      16.100  -2.500  52.598  1.00  0.00    -0.225 NA
HETATM   22  C15 UNL     1      15.954  -1.250  52.517  1.00  0.00     0.148 A 
HETATM   23  H13 UNL     1      12.639   4.647  55.320  1.00  0.00     0.165 HD
ENDROOT
BRANCH  22  24
HETATM   24  N6  UNL     1      17.198  -0.693  52.715  1.00  0.00    -0.342 N 
HETATM   25  H15 UNL     1      17.069  -0.149  53.656  1.00  0.00     0.167 HD
BRANCH  24  26
HETATM   26  C16 UNL     1      18.511  -0.334  52.530  1.00  0.00     0.035 A 
HETATM   27  C17 UNL     1      18.808   0.243  51.324  1.00  0.00     0.032 A 
HETATM   28  C18 UNL     1      20.118   0.524  51.004  1.00  0.00     0.046 A 
HETATM   29  C19 UNL     1      21.051   0.193  51.965  1.00  0.00     0.138 A 
HETATM   30  F1  UNL     1      22.397   0.384  51.773  1.00  0.00    -0.204 F 
HETATM   31  C20 UNL     1      20.821  -0.384  53.199  1.00  0.00     0.074 A 
HETATM   32 CL1  UNL     1      21.948  -0.840  54.410  1.00  0.00    -0.081 Cl
HETATM   33  C21 UNL     1      19.492  -0.656  53.480  1.00  0.00     0.056 A 
ENDBRANCH  24  26
ENDBRANCH  22  24
TORSDOF 2
ENDMDL
