MODEL 1
REMARK VINA RESULT:      -7.8      0.000      0.000
REMARK  5 active torsions:
REMARK  status: ('A' for Active; 'I' for Inactive)
REMARK    1  A    between atoms: C5_5  and  S1_6 
REMARK    2  A    between atoms: S1_6  and  C6_9 
REMARK    3  A    between atoms: C6_9  and  N1_10 
REMARK    4  A    between atoms: C6_9  and  C7_11 
REMARK    5  A    between atoms: C7_11  and  C8_12 
ROOT
HETATM    1  C6  UNL     1      26.552   1.725  53.248  1.00  0.00     0.207 C 
ENDROOT
BRANCH   1   2
HETATM    2  S1  UNL     1      26.476   0.077  53.892  1.00  0.00     0.196 S 
HETATM    3  O1  UNL     1      27.119  -0.836  52.884  1.00  0.00    -0.220 OA
HETATM    4  O2  UNL     1      27.264  -0.055  55.151  1.00  0.00    -0.220 OA
BRANCH   2   5
HETATM    5  C5  UNL     1      24.815  -0.453  54.116  1.00  0.00     0.061 A 
HETATM    6  C4  UNL     1      23.898  -0.182  53.100  1.00  0.00     0.024 A 
HETATM    7  C3  UNL     1      22.575  -0.562  53.195  1.00  0.00     0.008 A 
HETATM    8  C2  UNL     1      22.164  -1.227  54.333  1.00  0.00    -0.062 A 
HETATM    9  C1  UNL     1      20.716  -1.605  54.360  1.00  0.00     0.048 C 
HETATM   10  C15 UNL     1      23.059  -1.512  55.367  1.00  0.00     0.008 A 
HETATM   11  C14 UNL     1      24.388  -1.120  55.251  1.00  0.00     0.024 A 
ENDBRANCH   2   5
ENDBRANCH   1   2
BRANCH   1  12
HETATM   12  N1  UNL     1      27.557   2.536  53.861  1.00  0.00    -0.414 N 
HETATM   13  H7  UNL     1      27.228   3.185  54.573  1.00  0.00     0.151 HD
HETATM   14  H8  UNL     1      28.291   2.893  53.229  1.00  0.00     0.151 HD
ENDBRANCH   1  12
BRANCH   1  15
HETATM   15  C7  UNL     1      26.908   1.599  51.776  1.00  0.00     0.079 C 
BRANCH  15  16
HETATM   16  C8  UNL     1      26.073   2.534  50.952  1.00  0.00    -0.055 A 
HETATM   17  C9  UNL     1      24.695   2.540  50.928  1.00  0.00     0.009 A 
HETATM   18  C10 UNL     1      23.993   3.429  50.146  1.00  0.00     0.024 A 
HETATM   19  C11 UNL     1      24.660   4.357  49.350  1.00  0.00     0.034 A 
HETATM   20 CL1  UNL     1      23.737   5.467  48.374  1.00  0.00    -0.084 Cl
HETATM   21  C12 UNL     1      26.057   4.372  49.356  1.00  0.00     0.024 A 
HETATM   22  C13 UNL     1      26.727   3.471  50.148  1.00  0.00     0.009 A 
ENDBRANCH  15  16
ENDBRANCH   1  15
TORSDOF 5
ENDMDL
MODEL 2
REMARK VINA RESULT:      -7.7      2.496      5.814
REMARK  5 active torsions:
REMARK  status: ('A' for Active; 'I' for Inactive)
REMARK    1  A    between atoms: C5_5  and  S1_6 
REMARK    2  A    between atoms: S1_6  and  C6_9 
REMARK    3  A    between atoms: C6_9  and  N1_10 
REMARK    4  A    between atoms: C6_9  and  C7_11 
REMARK    5  A    between atoms: C7_11  and  C8_12 
ROOT
HETATM    1  C6  UNL     1      25.869  -0.507  53.156  1.00  0.00     0.207 C 
ENDROOT
BRANCH   1   2
HETATM    2  S1  UNL     1      26.654   1.080  53.229  1.00  0.00     0.196 S 
HETATM    3  O1  UNL     1      26.433   1.634  54.611  1.00  0.00    -0.220 OA
HETATM    4  O2  UNL     1      28.130   0.968  53.047  1.00  0.00    -0.220 OA
BRANCH   2   5
HETATM    5  C5  UNL     1      25.947   2.203  52.078  1.00  0.00     0.061 A 
HETATM    6  C4  UNL     1      26.607   2.403  50.865  1.00  0.00     0.024 A 
HETATM    7  C3  UNL     1      26.120   3.268  49.907  1.00  0.00     0.008 A 
HETATM    8  C2  UNL     1      24.947   3.946  50.172  1.00  0.00    -0.062 A 
HETATM    9  C1  UNL     1      24.485   4.864  49.082  1.00  0.00     0.048 C 
HETATM   10  C15 UNL     1      24.264   3.767  51.377  1.00  0.00     0.008 A 
HETATM   11  C14 UNL     1      24.772   2.891  52.329  1.00  0.00     0.024 A 
ENDBRANCH   2   5
ENDBRANCH   1   2
BRANCH   1  12
HETATM   12  N1  UNL     1      26.786  -1.603  53.178  1.00  0.00    -0.414 N 
HETATM   13  H7  UNL     1      27.773  -1.354  53.188  1.00  0.00     0.151 HD
HETATM   14  H8  UNL     1      26.530  -2.413  52.589  1.00  0.00     0.151 HD
ENDBRANCH   1  12
BRANCH   1  15
HETATM   15  C7  UNL     1      25.001  -0.618  54.400  1.00  0.00     0.079 C 
BRANCH  15  16
HETATM   16  C8  UNL     1      23.548  -0.602  54.028  1.00  0.00    -0.055 A 
HETATM   17  C9  UNL     1      23.041  -0.055  52.869  1.00  0.00     0.009 A 
HETATM   18  C10 UNL     1      21.693  -0.076  52.593  1.00  0.00     0.024 A 
HETATM   19  C11 UNL     1      20.793  -0.657  53.484  1.00  0.00     0.034 A 
HETATM   20 CL1  UNL     1      19.094  -0.666  53.100  1.00  0.00    -0.084 Cl
HETATM   21  C12 UNL     1      21.281  -1.218  54.666  1.00  0.00     0.024 A 
HETATM   22  C13 UNL     1      22.633  -1.180  54.911  1.00  0.00     0.009 A 
ENDBRANCH  15  16
ENDBRANCH   1  15
TORSDOF 5
ENDMDL
MODEL 3
REMARK VINA RESULT:      -7.5      4.227      7.387
REMARK  5 active torsions:
REMARK  status: ('A' for Active; 'I' for Inactive)
REMARK    1  A    between atoms: C5_5  and  S1_6 
REMARK    2  A    between atoms: S1_6  and  C6_9 
REMARK    3  A    between atoms: C6_9  and  N1_10 
REMARK    4  A    between atoms: C6_9  and  C7_11 
REMARK    5  A    between atoms: C7_11  and  C8_12 
ROOT
HETATM    1  C6  UNL     1      24.935   3.298  51.946  1.00  0.00     0.207 C 
ENDROOT
BRANCH   1   2
HETATM    2  S1  UNL     1      24.375   3.995  50.416  1.00  0.00     0.196 S 
HETATM    3  O1  UNL     1      23.954   2.857  49.525  1.00  0.00    -0.220 OA
HETATM    4  O2  UNL     1      23.169   4.849  50.614  1.00  0.00    -0.220 OA
BRANCH   2   5
HETATM    5  C5  UNL     1      25.658   4.873  49.598  1.00  0.00     0.061 A 
HETATM    6  C4  UNL     1      26.812   4.173  49.248  1.00  0.00     0.024 A 
HETATM    7  C3  UNL     1      27.868   4.787  48.605  1.00  0.00     0.008 A 
HETATM    8  C2  UNL     1      27.762   6.131  48.308  1.00  0.00    -0.062 A 
HETATM    9  C1  UNL     1      28.947   6.723  47.610  1.00  0.00     0.048 C 
HETATM   10  C15 UNL     1      26.619   6.859  48.647  1.00  0.00     0.008 A 
HETATM   11  C14 UNL     1      25.567   6.221  49.294  1.00  0.00     0.024 A 
ENDBRANCH   2   5
ENDBRANCH   1   2
BRANCH   1  12
HETATM   12  N1  UNL     1      24.181   3.725  53.082  1.00  0.00    -0.414 N 
HETATM   13  H7  UNL     1      24.620   4.438  53.662  1.00  0.00     0.151 HD
HETATM   14  H8  UNL     1      23.673   2.982  53.588  1.00  0.00     0.151 HD
ENDBRANCH   1  12
BRANCH   1  15
HETATM   15  C7  UNL     1      24.760   1.793  51.826  1.00  0.00     0.079 C 
BRANCH  15  16
HETATM   16  C8  UNL     1      25.987   1.082  52.315  1.00  0.00    -0.055 A 
HETATM   17  C9  UNL     1      26.094  -0.283  52.471  1.00  0.00     0.009 A 
HETATM   18  C10 UNL     1      27.254  -0.868  52.926  1.00  0.00     0.024 A 
HETATM   19  C11 UNL     1      28.364  -0.089  53.246  1.00  0.00     0.034 A 
HETATM   20 CL1  UNL     1      29.816  -0.865  53.818  1.00  0.00    -0.084 Cl
HETATM   21  C12 UNL     1      28.283   1.297  53.098  1.00  0.00     0.024 A 
HETATM   22  C13 UNL     1      27.110   1.848  52.641  1.00  0.00     0.009 A 
ENDBRANCH  15  16
ENDBRANCH   1  15
TORSDOF 5
ENDMDL
MODEL 4
REMARK VINA RESULT:      -7.4      3.262      4.441
REMARK  5 active torsions:
REMARK  status: ('A' for Active; 'I' for Inactive)
REMARK    1  A    between atoms: C5_5  and  S1_6 
REMARK    2  A    between atoms: S1_6  and  C6_9 
REMARK    3  A    between atoms: C6_9  and  N1_10 
REMARK    4  A    between atoms: C6_9  and  C7_11 
REMARK    5  A    between atoms: C7_11  and  C8_12 
ROOT
HETATM    1  C6  UNL     1      24.168   2.367  50.922  1.00  0.00     0.207 C 
ENDROOT
BRANCH   1   2
HETATM    2  S1  UNL     1      24.395   1.913  52.619  1.00  0.00     0.196 S 
HETATM    3  O1  UNL     1      24.462   3.183  53.425  1.00  0.00    -0.220 OA
HETATM    4  O2  UNL     1      23.230   1.140  53.138  1.00  0.00    -0.220 OA
BRANCH   2   5
HETATM    5  C5  UNL     1      25.903   1.043  52.858  1.00  0.00     0.061 A 
HETATM    6  C4  UNL     1      27.049   1.783  53.147  1.00  0.00     0.024 A 
HETATM    7  C3  UNL     1      28.273   1.179  53.347  1.00  0.00     0.008 A 
HETATM    8  C2  UNL     1      28.347  -0.196  53.256  1.00  0.00    -0.062 A 
HETATM    9  C1  UNL     1      29.709  -0.775  53.488  1.00  0.00     0.048 C 
HETATM   10  C15 UNL     1      27.217  -0.964  52.969  1.00  0.00     0.008 A 
HETATM   11  C14 UNL     1      25.993  -0.336  52.770  1.00  0.00     0.024 A 
ENDBRANCH   2   5
ENDBRANCH   1   2
BRANCH   1  12
HETATM   12  N1  UNL     1      22.958   1.868  50.350  1.00  0.00    -0.414 N 
HETATM   13  H7  UNL     1      22.151   1.847  50.971  1.00  0.00     0.151 HD
HETATM   14  H8  UNL     1      23.061   1.058  49.717  1.00  0.00     0.151 HD
ENDBRANCH   1  12
BRANCH   1  15
HETATM   15  C7  UNL     1      24.093   3.886  50.885  1.00  0.00     0.079 C 
BRANCH  15  16
HETATM   16  C8  UNL     1      25.243   4.449  50.105  1.00  0.00    -0.055 A 
HETATM   17  C9  UNL     1      26.317   3.715  49.650  1.00  0.00     0.009 A 
HETATM   18  C10 UNL     1      27.339   4.300  48.938  1.00  0.00     0.024 A 
HETATM   19  C11 UNL     1      27.318   5.664  48.654  1.00  0.00     0.034 A 
HETATM   20 CL1  UNL     1      28.630   6.369  47.750  1.00  0.00    -0.084 Cl
HETATM   21  C12 UNL     1      26.241   6.431  49.105  1.00  0.00     0.024 A 
HETATM   22  C13 UNL     1      25.238   5.815  49.812  1.00  0.00     0.009 A 
ENDBRANCH  15  16
ENDBRANCH   1  15
TORSDOF 5
ENDMDL
MODEL 5
REMARK VINA RESULT:      -7.3      4.035      7.022
REMARK  5 active torsions:
REMARK  status: ('A' for Active; 'I' for Inactive)
REMARK    1  A    between atoms: C5_5  and  S1_6 
REMARK    2  A    between atoms: S1_6  and  C6_9 
REMARK    3  A    between atoms: C6_9  and  N1_10 
REMARK    4  A    between atoms: C6_9  and  C7_11 
REMARK    5  A    between atoms: C7_11  and  C8_12 
ROOT
HETATM    1  C6  UNL     1      22.631   3.253  51.821  1.00  0.00     0.207 C 
ENDROOT
BRANCH   1   2
HETATM    2  S1  UNL     1      22.788   3.465  50.069  1.00  0.00     0.196 S 
HETATM    3  O1  UNL     1      22.547   2.127  49.425  1.00  0.00    -0.220 OA
HETATM    4  O2  UNL     1      21.747   4.389  49.535  1.00  0.00    -0.220 OA
BRANCH   2   5
HETATM    5  C5  UNL     1      24.405   3.993  49.625  1.00  0.00     0.061 A 
HETATM    6  C4  UNL     1      24.554   5.272  49.091  1.00  0.00     0.024 A 
HETATM    7  C3  UNL     1      25.787   5.764  48.715  1.00  0.00     0.008 A 
HETATM    8  C2  UNL     1      26.893   4.954  48.879  1.00  0.00    -0.062 A 
HETATM    9  C1  UNL     1      28.194   5.560  48.449  1.00  0.00     0.048 C 
HETATM   10  C15 UNL     1      26.775   3.668  49.411  1.00  0.00     0.008 A 
HETATM   11  C14 UNL     1      25.523   3.192  49.783  1.00  0.00     0.024 A 
ENDBRANCH   2   5
ENDBRANCH   1   2
BRANCH   1  12
HETATM   12  N1  UNL     1      21.382   3.706  52.345  1.00  0.00    -0.414 N 
HETATM   13  H7  UNL     1      21.410   4.086  53.289  1.00  0.00     0.151 HD
HETATM   14  H8  UNL     1      20.562   3.121  52.118  1.00  0.00     0.151 HD
ENDBRANCH   1  12
BRANCH   1  15
HETATM   15  C7  UNL     1      22.718   1.759  52.086  1.00  0.00     0.079 C 
BRANCH  15  16
HETATM   16  C8  UNL     1      23.998   1.425  52.794  1.00  0.00    -0.055 A 
HETATM   17  C9  UNL     1      24.935   2.351  53.199  1.00  0.00     0.009 A 
HETATM   18  C10 UNL     1      26.089   1.972  53.845  1.00  0.00     0.024 A 
HETATM   19  C11 UNL     1      26.347   0.629  54.111  1.00  0.00     0.034 A 
HETATM   20 CL1  UNL     1      27.819   0.187  54.932  1.00  0.00    -0.084 Cl
HETATM   21  C12 UNL     1      25.414  -0.330  53.711  1.00  0.00     0.024 A 
HETATM   22  C13 UNL     1      24.272   0.083  53.068  1.00  0.00     0.009 A 
ENDBRANCH  15  16
ENDBRANCH   1  15
TORSDOF 5
ENDMDL
MODEL 6
REMARK VINA RESULT:      -7.1      3.714      5.931
REMARK  5 active torsions:
REMARK  status: ('A' for Active; 'I' for Inactive)
REMARK    1  A    between atoms: C5_5  and  S1_6 
REMARK    2  A    between atoms: S1_6  and  C6_9 
REMARK    3  A    between atoms: C6_9  and  N1_10 
REMARK    4  A    between atoms: C6_9  and  C7_11 
REMARK    5  A    between atoms: C7_11  and  C8_12 
ROOT
HETATM    1  C6  UNL     1      22.464   0.233  53.859  1.00  0.00     0.207 C 
ENDROOT
BRANCH   1   2
HETATM    2  S1  UNL     1      21.591   1.100  52.584  1.00  0.00     0.196 S 
HETATM    3  O1  UNL     1      21.075   0.077  51.609  1.00  0.00    -0.220 OA
HETATM    4  O2  UNL     1      20.399   1.812  53.126  1.00  0.00    -0.220 OA
BRANCH   2   5
HETATM    5  C5  UNL     1      22.650   2.194  51.706  1.00  0.00     0.061 A 
HETATM    6  C4  UNL     1      22.795   2.006  50.332  1.00  0.00     0.024 A 
HETATM    7  C3  UNL     1      23.607   2.819  49.569  1.00  0.00     0.008 A 
HETATM    8  C2  UNL     1      24.287   3.842  50.198  1.00  0.00    -0.062 A 
HETATM    9  C1  UNL     1      25.146   4.679  49.301  1.00  0.00     0.048 C 
HETATM   10  C15 UNL     1      24.163   4.055  51.572  1.00  0.00     0.008 A 
HETATM   11  C14 UNL     1      23.339   3.225  52.323  1.00  0.00     0.024 A 
ENDBRANCH   2   5
ENDBRANCH   1   2
BRANCH   1  12
HETATM   12  N1  UNL     1      21.623  -0.576  54.683  1.00  0.00    -0.414 N 
HETATM   13  H7  UNL     1      21.724  -1.582  54.564  1.00  0.00     0.151 HD
HETATM   14  H8  UNL     1      20.659  -0.231  54.815  1.00  0.00     0.151 HD
ENDBRANCH   1  12
BRANCH   1  15
HETATM   15  C7  UNL     1      23.442  -0.697  53.159  1.00  0.00     0.079 C 
BRANCH  15  16
HETATM   16  C8  UNL     1      24.853  -0.245  53.391  1.00  0.00    -0.055 A 
HETATM   17  C9  UNL     1      25.505  -0.301  54.604  1.00  0.00     0.009 A 
HETATM   18  C10 UNL     1      26.804   0.133  54.744  1.00  0.00     0.024 A 
HETATM   19  C11 UNL     1      27.504   0.645  53.653  1.00  0.00     0.034 A 
HETATM   20 CL1  UNL     1      29.147   1.183  53.868  1.00  0.00    -0.084 Cl
HETATM   21  C12 UNL     1      26.866   0.713  52.413  1.00  0.00     0.024 A 
HETATM   22  C13 UNL     1      25.570   0.271  52.308  1.00  0.00     0.009 A 
ENDBRANCH  15  16
ENDBRANCH   1  15
TORSDOF 5
ENDMDL
MODEL 7
REMARK VINA RESULT:      -7.0      4.122      5.353
REMARK  5 active torsions:
REMARK  status: ('A' for Active; 'I' for Inactive)
REMARK    1  A    between atoms: C5_5  and  S1_6 
REMARK    2  A    between atoms: S1_6  and  C6_9 
REMARK    3  A    between atoms: C6_9  and  N1_10 
REMARK    4  A    between atoms: C6_9  and  C7_11 
REMARK    5  A    between atoms: C7_11  and  C8_12 
ROOT
HETATM    1  C6  UNL     1      25.147   2.776  51.411  1.00  0.00     0.207 C 
ENDROOT
BRANCH   1   2
HETATM    2  S1  UNL     1      23.574   3.580  51.289  1.00  0.00     0.196 S 
HETATM    3  O1  UNL     1      23.481   4.573  52.416  1.00  0.00    -0.220 OA
HETATM    4  O2  UNL     1      23.456   4.360  50.023  1.00  0.00    -0.220 OA
BRANCH   2   5
HETATM    5  C5  UNL     1      22.250   2.438  51.466  1.00  0.00     0.061 A 
HETATM    6  C4  UNL     1      21.165   2.809  52.261  1.00  0.00     0.024 A 
HETATM    7  C3  UNL     1      20.086   1.971  52.454  1.00  0.00     0.008 A 
HETATM    8  C2  UNL     1      20.095   0.737  51.836  1.00  0.00    -0.062 A 
HETATM    9  C1  UNL     1      18.889  -0.112  52.094  1.00  0.00     0.048 C 
HETATM   10  C15 UNL     1      21.167   0.338  51.034  1.00  0.00     0.008 A 
HETATM   11  C14 UNL     1      22.245   1.197  50.853  1.00  0.00     0.024 A 
ENDBRANCH   2   5
ENDBRANCH   1   2
BRANCH   1  12
HETATM   12  N1  UNL     1      26.249   3.609  51.044  1.00  0.00    -0.414 N 
HETATM   13  H7  UNL     1      26.106   4.610  51.165  1.00  0.00     0.151 HD
HETATM   14  H8  UNL     1      26.761   3.326  50.193  1.00  0.00     0.151 HD
ENDBRANCH   1  12
BRANCH   1  15
HETATM   15  C7  UNL     1      25.331   2.402  52.874  1.00  0.00     0.079 C 
BRANCH  15  16
HETATM   16  C8  UNL     1      26.350   1.311  53.013  1.00  0.00    -0.055 A 
HETATM   17  C9  UNL     1      27.555   1.442  53.668  1.00  0.00     0.009 A 
HETATM   18  C10 UNL     1      28.444   0.395  53.757  1.00  0.00     0.024 A 
HETATM   19  C11 UNL     1      28.149  -0.839  53.180  1.00  0.00     0.034 A 
HETATM   20 CL1  UNL     1      29.299  -2.141  53.313  1.00  0.00    -0.084 Cl
HETATM   21  C12 UNL     1      26.934  -0.998  52.509  1.00  0.00     0.024 A 
HETATM   22  C13 UNL     1      26.070   0.068  52.440  1.00  0.00     0.009 A 
ENDBRANCH  15  16
ENDBRANCH   1  15
TORSDOF 5
ENDMDL
MODEL 8
REMARK VINA RESULT:      -7.0      3.363      4.367
REMARK  5 active torsions:
REMARK  status: ('A' for Active; 'I' for Inactive)
REMARK    1  A    between atoms: C5_5  and  S1_6 
REMARK    2  A    between atoms: S1_6  and  C6_9 
REMARK    3  A    between atoms: C6_9  and  N1_10 
REMARK    4  A    between atoms: C6_9  and  C7_11 
REMARK    5  A    between atoms: C7_11  and  C8_12 
ROOT
HETATM    1  C6  UNL     1      23.060   2.165  50.155  1.00  0.00     0.207 C 
ENDROOT
BRANCH   1   2
HETATM    2  S1  UNL     1      22.644   1.755  51.827  1.00  0.00     0.196 S 
HETATM    3  O1  UNL     1      22.116   3.002  52.485  1.00  0.00    -0.220 OA
HETATM    4  O2  UNL     1      21.548   0.745  51.886  1.00  0.00    -0.220 OA
BRANCH   2   5
HETATM    5  C5  UNL     1      24.055   1.226  52.732  1.00  0.00     0.061 A 
HETATM    6  C4  UNL     1      25.029   2.174  53.043  1.00  0.00     0.024 A 
HETATM    7  C3  UNL     1      26.167   1.843  53.749  1.00  0.00     0.008 A 
HETATM    8  C2  UNL     1      26.331   0.532  54.150  1.00  0.00    -0.062 A 
HETATM    9  C1  UNL     1      27.591   0.254  54.911  1.00  0.00     0.048 C 
HETATM   10  C15 UNL     1      25.374  -0.440  53.853  1.00  0.00     0.008 A 
HETATM   11  C14 UNL     1      24.234  -0.085  53.141  1.00  0.00     0.024 A 
ENDBRANCH   2   5
ENDBRANCH   1   2
BRANCH   1  12
HETATM   12  N1  UNL     1      22.109   1.700  49.196  1.00  0.00    -0.414 N 
HETATM   13  H7  UNL     1      22.403   1.748  48.222  1.00  0.00     0.151 HD
HETATM   14  H8  UNL     1      21.125   1.951  49.382  1.00  0.00     0.151 HD
ENDBRANCH   1  12
BRANCH   1  15
HETATM   15  C7  UNL     1      23.080   3.684  50.074  1.00  0.00     0.079 C 
BRANCH  15  16
HETATM   16  C8  UNL     1      24.429   4.168  49.633  1.00  0.00    -0.055 A 
HETATM   17  C9  UNL     1      24.683   5.419  49.116  1.00  0.00     0.009 A 
HETATM   18  C10 UNL     1      25.950   5.796  48.731  1.00  0.00     0.024 A 
HETATM   19  C11 UNL     1      27.022   4.915  48.855  1.00  0.00     0.034 A 
HETATM   20 CL1  UNL     1      28.612   5.427  48.359  1.00  0.00    -0.084 Cl
HETATM   21  C12 UNL     1      26.792   3.640  49.377  1.00  0.00     0.024 A 
HETATM   22  C13 UNL     1      25.515   3.297  49.751  1.00  0.00     0.009 A 
ENDBRANCH  15  16
ENDBRANCH   1  15
TORSDOF 5
ENDMDL
MODEL 9
REMARK VINA RESULT:      -6.9      4.135      5.358
REMARK  5 active torsions:
REMARK  status: ('A' for Active; 'I' for Inactive)
REMARK    1  A    between atoms: C5_5  and  S1_6 
REMARK    2  A    between atoms: S1_6  and  C6_9 
REMARK    3  A    between atoms: C6_9  and  N1_10 
REMARK    4  A    between atoms: C6_9  and  C7_11 
REMARK    5  A    between atoms: C7_11  and  C8_12 
ROOT
HETATM    1  C6  UNL     1      24.171   4.049  51.845  1.00  0.00     0.207 C 
ENDROOT
BRANCH   1   2
HETATM    2  S1  UNL     1      23.117   3.625  50.485  1.00  0.00     0.196 S 
HETATM    3  O1  UNL     1      22.528   4.902  49.950  1.00  0.00    -0.220 OA
HETATM    4  O2  UNL     1      23.889   3.010  49.367  1.00  0.00    -0.220 OA
BRANCH   2   5
HETATM    5  C5  UNL     1      21.790   2.591  50.995  1.00  0.00     0.061 A 
HETATM    6  C4  UNL     1      21.817   1.251  50.610  1.00  0.00     0.024 A 
HETATM    7  C3  UNL     1      20.815   0.372  50.967  1.00  0.00     0.008 A 
HETATM    8  C2  UNL     1      19.765   0.849  51.725  1.00  0.00    -0.062 A 
HETATM    9  C1  UNL     1      18.720  -0.166  52.071  1.00  0.00     0.048 C 
HETATM   10  C15 UNL     1      19.710   2.186  52.125  1.00  0.00     0.008 A 
HETATM   11  C14 UNL     1      20.730   3.055  51.755  1.00  0.00     0.024 A 
ENDBRANCH   2   5
ENDBRANCH   1   2
BRANCH   1  12
HETATM   12  N1  UNL     1      23.945   5.363  52.358  1.00  0.00    -0.414 N 
HETATM   13  H7  UNL     1      23.912   6.109  51.666  1.00  0.00     0.151 HD
HETATM   14  H8  UNL     1      24.430   5.589  53.242  1.00  0.00     0.151 HD
ENDBRANCH   1  12
BRANCH   1  15
HETATM   15  C7  UNL     1      23.855   3.067  52.961  1.00  0.00     0.079 C 
BRANCH  15  16
HETATM   16  C8  UNL     1      24.692   1.830  52.824  1.00  0.00    -0.055 A 
HETATM   17  C9  UNL     1      25.933   1.786  52.226  1.00  0.00     0.009 A 
HETATM   18  C10 UNL     1      26.647   0.612  52.136  1.00  0.00     0.024 A 
HETATM   19  C11 UNL     1      26.132  -0.575  52.651  1.00  0.00     0.034 A 
HETATM   20 CL1  UNL     1      27.065  -2.040  52.519  1.00  0.00    -0.084 Cl
HETATM   21  C12 UNL     1      24.876  -0.558  53.261  1.00  0.00     0.024 A 
HETATM   22  C13 UNL     1      24.190   0.631  53.335  1.00  0.00     0.009 A 
ENDBRANCH  15  16
ENDBRANCH   1  15
TORSDOF 5
ENDMDL
