MODEL 1
REMARK VINA RESULT:      -7.9      0.000      0.000
REMARK  4 active torsions:
REMARK  status: ('A' for Active; 'I' for Inactive)
REMARK    1  A    between atoms: N1_1  and  C1_2 
REMARK    2  A    between atoms: C2_4  and  N3_5 
REMARK    3  A    between atoms: N3_5  and  C3_6 
REMARK    4  A    between atoms: N4_14  and  C10_15 
ROOT
HETATM    1  C1  UNL     1      21.756  -0.169  54.088  1.00  0.00     0.724 A 
HETATM    2  N2  UNL     1      20.836   0.681  53.567  1.00  0.00    -0.044 NA
HETATM    3  C2  UNL     1      21.242   1.661  52.718  1.00  0.00     0.161 A 
HETATM    4  C7  UNL     1      22.551   1.866  52.333  1.00  0.00     0.059 A 
HETATM    5  C8  UNL     1      23.203   2.741  51.526  1.00  0.00     0.037 A 
HETATM    6  C9  UNL     1      24.543   2.373  51.590  1.00  0.00     0.100 A 
HETATM    7  N4  UNL     1      24.659   1.300  52.425  1.00  0.00    -0.306 N 
HETATM    8  C16 UNL     1      23.440   0.959  52.903  1.00  0.00     0.167 A 
HETATM    9  N5  UNL     1      23.066  -0.036  53.758  1.00  0.00    -0.044 NA
ENDROOT
BRANCH   7  10
HETATM   10  C10 UNL     1      25.906   0.670  52.716  1.00  0.00     0.042 A 
HETATM   11  C11 UNL     1      26.843   1.585  53.211  1.00  0.00     0.032 A 
HETATM   12  C12 UNL     1      28.117   1.148  53.555  1.00  0.00     0.028 A 
HETATM   13  C13 UNL     1      28.499  -0.189  53.420  1.00  0.00     0.055 A 
HETATM   14 CL1  UNL     1      30.071  -0.786  53.832  1.00  0.00    -0.083 Cl
HETATM   15  C14 UNL     1      27.534  -1.064  52.924  1.00  0.00     0.058 A 
HETATM   16 CL2  UNL     1      27.888  -2.767  52.708  1.00  0.00    -0.082 Cl
HETATM   17  C15 UNL     1      26.262  -0.656  52.575  1.00  0.00     0.055 A 
ENDBRANCH   7  10
BRANCH   3  18
HETATM   18  N3  UNL     1      20.267   2.574  52.173  1.00  0.00    -0.340 N 
HETATM   19  H3  UNL     1      20.148   3.610  52.162  1.00  0.00     0.167 HD
BRANCH  18  20
HETATM   20  C3  UNL     1      19.282   1.745  51.518  1.00  0.00     0.036 A 
HETATM   21  C4  UNL     1      19.379   1.017  50.392  1.00  0.00     0.048 A 
HETATM   22  C5  UNL     1      18.009   0.537  50.466  1.00  0.00     0.015 A 
HETATM   23 BR1  UNL     1      16.627  -0.517  49.707  1.00  0.00    -0.051 Br
HETATM   24  C6  UNL     1      17.899   1.248  51.574  1.00  0.00     0.048 A 
ENDBRANCH  18  20
ENDBRANCH   3  18
BRANCH   1  25
HETATM   25  N1  UNL     1      21.186  -1.135  54.957  1.00  0.00    -0.231 N 
HETATM   26  H1  UNL     1      20.556  -1.946  54.782  1.00  0.00     0.174 HD
HETATM   27  H2  UNL     1      21.308  -1.201  55.971  1.00  0.00     0.174 HD
ENDBRANCH   1  25
TORSDOF 4
ENDMDL
MODEL 2
REMARK VINA RESULT:      -7.9      2.028      3.212
REMARK  4 active torsions:
REMARK  status: ('A' for Active; 'I' for Inactive)
REMARK    1  A    between atoms: N1_1  and  C1_2 
REMARK    2  A    between atoms: C2_4  and  N3_5 
REMARK    3  A    between atoms: N3_5  and  C3_6 
REMARK    4  A    between atoms: N4_14  and  C10_15 
ROOT
HETATM    1  C1  UNL     1      23.423   4.433  52.424  1.00  0.00     0.724 A 
HETATM    2  N2  UNL     1      22.084   4.245  52.315  1.00  0.00    -0.044 NA
HETATM    3  C2  UNL     1      21.578   2.989  52.434  1.00  0.00     0.161 A 
HETATM    4  C7  UNL     1      22.338   1.861  52.661  1.00  0.00     0.059 A 
HETATM    5  C8  UNL     1      22.091   0.535  52.815  1.00  0.00     0.037 A 
HETATM    6  C9  UNL     1      23.337  -0.050  53.019  1.00  0.00     0.100 A 
HETATM    7  N4  UNL     1      24.287   0.928  52.982  1.00  0.00    -0.306 N 
HETATM    8  C16 UNL     1      23.701   2.127  52.763  1.00  0.00     0.167 A 
HETATM    9  N5  UNL     1      24.241   3.375  52.649  1.00  0.00    -0.044 NA
ENDROOT
BRANCH   7  10
HETATM   10  C10 UNL     1      25.680   0.668  53.155  1.00  0.00     0.042 A 
HETATM   11  C11 UNL     1      26.003  -0.655  52.833  1.00  0.00     0.032 A 
HETATM   12  C12 UNL     1      27.318  -1.088  52.937  1.00  0.00     0.028 A 
HETATM   13  C13 UNL     1      28.344  -0.238  53.359  1.00  0.00     0.055 A 
HETATM   14 CL1  UNL     1      29.998  -0.726  53.507  1.00  0.00    -0.083 Cl
HETATM   15  C14 UNL     1      27.977   1.070  53.670  1.00  0.00     0.058 A 
HETATM   16 CL2  UNL     1      29.169   2.236  54.212  1.00  0.00    -0.082 Cl
HETATM   17  C15 UNL     1      26.677   1.526  53.574  1.00  0.00     0.055 A 
ENDBRANCH   7  10
BRANCH   3  18
HETATM   18  N3  UNL     1      20.156   2.784  52.306  1.00  0.00    -0.340 N 
HETATM   19  H3  UNL     1      19.377   2.564  52.964  1.00  0.00     0.167 HD
BRANCH  18  20
HETATM   20  C3  UNL     1      19.864   2.947  50.900  1.00  0.00     0.036 A 
HETATM   21  C4  UNL     1      19.841   2.034  49.913  1.00  0.00     0.048 A 
HETATM   22  C5  UNL     1      19.482   3.003  48.891  1.00  0.00     0.015 A 
HETATM   23 BR1  UNL     1      19.080   3.352  47.070  1.00  0.00    -0.051 Br
HETATM   24  C6  UNL     1      19.501   3.911  49.851  1.00  0.00     0.048 A 
ENDBRANCH  18  20
ENDBRANCH   3  18
BRANCH   1  25
HETATM   25  N1  UNL     1      23.802   5.793  52.276  1.00  0.00    -0.231 N 
HETATM   26  H1  UNL     1      24.604   6.244  51.788  1.00  0.00     0.174 HD
HETATM   27  H2  UNL     1      23.318   6.613  52.649  1.00  0.00     0.174 HD
ENDBRANCH   1  25
TORSDOF 4
ENDMDL
MODEL 3
REMARK VINA RESULT:      -7.8      3.600      4.861
REMARK  4 active torsions:
REMARK  status: ('A' for Active; 'I' for Inactive)
REMARK    1  A    between atoms: N1_1  and  C1_2 
REMARK    2  A    between atoms: C2_4  and  N3_5 
REMARK    3  A    between atoms: N3_5  and  C3_6 
REMARK    4  A    between atoms: N4_14  and  C10_15 
ROOT
HETATM    1  C1  UNL     1      26.673   4.279  49.457  1.00  0.00     0.724 A 
HETATM    2  N2  UNL     1      25.473   4.904  49.359  1.00  0.00    -0.044 NA
HETATM    3  C2  UNL     1      24.453   4.512  50.167  1.00  0.00     0.161 A 
HETATM    4  C7  UNL     1      24.542   3.503  51.103  1.00  0.00     0.059 A 
HETATM    5  C8  UNL     1      23.703   2.934  52.006  1.00  0.00     0.037 A 
HETATM    6  C9  UNL     1      24.456   1.952  52.641  1.00  0.00     0.100 A 
HETATM    7  N4  UNL     1      25.712   1.956  52.109  1.00  0.00    -0.306 N 
HETATM    8  C16 UNL     1      25.800   2.908  51.151  1.00  0.00     0.167 A 
HETATM    9  N5  UNL     1      26.845   3.277  50.356  1.00  0.00    -0.044 NA
ENDROOT
BRANCH   7  10
HETATM   10  C10 UNL     1      26.742   1.065  52.535  1.00  0.00     0.042 A 
HETATM   11  C11 UNL     1      27.811   1.754  53.122  1.00  0.00     0.032 A 
HETATM   12  C12 UNL     1      28.905   1.046  53.602  1.00  0.00     0.028 A 
HETATM   13  C13 UNL     1      28.979  -0.347  53.517  1.00  0.00     0.055 A 
HETATM   14 CL1  UNL     1      30.319  -1.276  54.097  1.00  0.00    -0.083 Cl
HETATM   15  C14 UNL     1      27.893  -0.990  52.925  1.00  0.00     0.058 A 
HETATM   16 CL2  UNL     1      27.863  -2.735  52.758  1.00  0.00    -0.082 Cl
HETATM   17  C15 UNL     1      26.793  -0.311  52.441  1.00  0.00     0.055 A 
ENDBRANCH   7  10
BRANCH   3  18
HETATM   18  N3  UNL     1      23.171   5.165  50.055  1.00  0.00    -0.340 N 
HETATM   19  H3  UNL     1      22.571   5.733  50.692  1.00  0.00     0.167 HD
BRANCH  18  20
HETATM   20  C3  UNL     1      22.715   4.899  48.710  1.00  0.00     0.036 A 
HETATM   21  C4  UNL     1      22.217   3.771  48.175  1.00  0.00     0.048 A 
HETATM   22  C5  UNL     1      22.036   4.358  46.858  1.00  0.00     0.015 A 
HETATM   23 BR1  UNL     1      21.469   4.141  45.060  1.00  0.00    -0.051 Br
HETATM   24  C6  UNL     1      22.524   5.473  47.369  1.00  0.00     0.048 A 
ENDBRANCH  18  20
ENDBRANCH   3  18
BRANCH   1  25
HETATM   25  N1  UNL     1      27.638   4.792  48.552  1.00  0.00    -0.231 N 
HETATM   26  H1  UNL     1      27.545   5.293  47.643  1.00  0.00     0.174 HD
HETATM   27  H2  UNL     1      28.656   4.754  48.647  1.00  0.00     0.174 HD
ENDBRANCH   1  25
TORSDOF 4
ENDMDL
MODEL 4
REMARK VINA RESULT:      -7.3      5.151      7.344
REMARK  4 active torsions:
REMARK  status: ('A' for Active; 'I' for Inactive)
REMARK    1  A    between atoms: N1_1  and  C1_2 
REMARK    2  A    between atoms: C2_4  and  N3_5 
REMARK    3  A    between atoms: N3_5  and  C3_6 
REMARK    4  A    between atoms: N4_14  and  C10_15 
ROOT
HETATM    1  C1  UNL     1      23.883   5.415  52.000  1.00  0.00     0.724 A 
HETATM    2  N2  UNL     1      24.243   6.038  50.850  1.00  0.00    -0.044 NA
HETATM    3  C2  UNL     1      24.036   5.411  49.663  1.00  0.00     0.161 A 
HETATM    4  C7  UNL     1      23.475   4.159  49.529  1.00  0.00     0.059 A 
HETATM    5  C8  UNL     1      23.167   3.333  48.496  1.00  0.00     0.037 A 
HETATM    6  C9  UNL     1      22.612   2.200  49.082  1.00  0.00     0.100 A 
HETATM    7  N4  UNL     1      22.601   2.372  50.435  1.00  0.00    -0.306 N 
HETATM    8  C16 UNL     1      23.129   3.579  50.747  1.00  0.00     0.167 A 
HETATM    9  N5  UNL     1      23.323   4.180  51.956  1.00  0.00    -0.044 NA
ENDROOT
BRANCH   7  10
HETATM   10  C10 UNL     1      22.096   1.392  51.342  1.00  0.00     0.042 A 
HETATM   11  C11 UNL     1      23.116   0.842  52.127  1.00  0.00     0.032 A 
HETATM   12  C12 UNL     1      22.809  -0.128  53.073  1.00  0.00     0.028 A 
HETATM   13  C13 UNL     1      21.501  -0.581  53.268  1.00  0.00     0.055 A 
HETATM   14 CL1  UNL     1      21.065  -1.787  54.430  1.00  0.00    -0.083 Cl
HETATM   15  C14 UNL     1      20.519  -0.005  52.464  1.00  0.00     0.058 A 
HETATM   16 CL2  UNL     1      18.839  -0.486  52.610  1.00  0.00    -0.082 Cl
HETATM   17  C15 UNL     1      20.797   0.961  51.518  1.00  0.00     0.055 A 
ENDBRANCH   7  10
BRANCH   3  18
HETATM   18  N3  UNL     1      24.429   6.066  48.439  1.00  0.00    -0.340 N 
HETATM   19  H3  UNL     1      23.926   6.519  47.646  1.00  0.00     0.167 HD
BRANCH  18  20
HETATM   20  C3  UNL     1      25.874   6.021  48.421  1.00  0.00     0.036 A 
HETATM   21  C4  UNL     1      26.761   6.959  48.048  1.00  0.00     0.048 A 
HETATM   22  C5  UNL     1      27.915   6.122  48.331  1.00  0.00     0.015 A 
HETATM   23 BR1  UNL     1      29.802   5.933  48.357  1.00  0.00    -0.051 Br
HETATM   24  C6  UNL     1      27.054   5.190  48.701  1.00  0.00     0.048 A 
ENDBRANCH  18  20
ENDBRANCH   3  18
BRANCH   1  25
HETATM   25  N1  UNL     1      24.162   6.188  53.158  1.00  0.00    -0.231 N 
HETATM   26  H1  UNL     1      24.323   7.208  53.293  1.00  0.00     0.174 HD
HETATM   27  H2  UNL     1      24.257   5.848  54.118  1.00  0.00     0.174 HD
ENDBRANCH   1  25
TORSDOF 4
ENDMDL
MODEL 5
REMARK VINA RESULT:      -7.3      4.670      7.857
REMARK  4 active torsions:
REMARK  status: ('A' for Active; 'I' for Inactive)
REMARK    1  A    between atoms: N1_1  and  C1_2 
REMARK    2  A    between atoms: C2_4  and  N3_5 
REMARK    3  A    between atoms: N3_5  and  C3_6 
REMARK    4  A    between atoms: N4_14  and  C10_15 
ROOT
HETATM    1  C1  UNL     1      23.072  -0.869  54.584  1.00  0.00     0.724 A 
HETATM    2  N2  UNL     1      24.096  -0.130  54.090  1.00  0.00    -0.044 NA
HETATM    3  C2  UNL     1      23.881   0.664  53.009  1.00  0.00     0.161 A 
HETATM    4  C7  UNL     1      22.672   0.781  52.355  1.00  0.00     0.059 A 
HETATM    5  C8  UNL     1      22.204   1.479  51.288  1.00  0.00     0.037 A 
HETATM    6  C9  UNL     1      20.865   1.122  51.173  1.00  0.00     0.100 A 
HETATM    7  N4  UNL     1      20.566   0.230  52.162  1.00  0.00    -0.306 N 
HETATM    8  C16 UNL     1      21.666  -0.003  52.915  1.00  0.00     0.167 A 
HETATM    9  N5  UNL     1      21.848  -0.810  53.999  1.00  0.00    -0.044 NA
ENDROOT
BRANCH   7  10
HETATM   10  C10 UNL     1      19.270  -0.342  52.330  1.00  0.00     0.042 A 
HETATM   11  C11 UNL     1      18.281   0.428  51.707  1.00  0.00     0.032 A 
HETATM   12  C12 UNL     1      16.954   0.020  51.762  1.00  0.00     0.028 A 
HETATM   13  C13 UNL     1      16.568  -1.146  52.430  1.00  0.00     0.055 A 
HETATM   14 CL1  UNL     1      14.930  -1.698  52.530  1.00  0.00    -0.083 Cl
HETATM   15  C14 UNL     1      17.585  -1.880  53.036  1.00  0.00     0.058 A 
HETATM   16 CL2  UNL     1      17.233  -3.362  53.904  1.00  0.00    -0.082 Cl
HETATM   17  C15 UNL     1      18.911  -1.498  52.995  1.00  0.00     0.055 A 
ENDBRANCH   7  10
BRANCH   3  18
HETATM   18  N3  UNL     1      24.972   1.442  52.473  1.00  0.00    -0.340 N 
HETATM   19  H3  UNL     1      25.059   2.364  51.993  1.00  0.00     0.167 HD
BRANCH  18  20
HETATM   20  C3  UNL     1      26.163   0.662  52.720  1.00  0.00     0.036 A 
HETATM   21  C4  UNL     1      27.204   0.912  53.532  1.00  0.00     0.048 A 
HETATM   22  C5  UNL     1      27.900  -0.315  53.181  1.00  0.00     0.015 A 
HETATM   23 BR1  UNL     1      29.415  -1.433  53.414  1.00  0.00    -0.051 Br
HETATM   24  C6  UNL     1      26.884  -0.573  52.378  1.00  0.00     0.048 A 
ENDBRANCH  18  20
ENDBRANCH   3  18
BRANCH   1  25
HETATM   25  N1  UNL     1      23.446  -1.649  55.709  1.00  0.00    -0.231 N 
HETATM   26  H1  UNL     1      24.051  -2.491  55.804  1.00  0.00     0.174 HD
HETATM   27  H2  UNL     1      23.164  -1.503  56.682  1.00  0.00     0.174 HD
ENDBRANCH   1  25
TORSDOF 4
ENDMDL
MODEL 6
REMARK VINA RESULT:      -7.2      5.056      8.108
REMARK  4 active torsions:
REMARK  status: ('A' for Active; 'I' for Inactive)
REMARK    1  A    between atoms: N1_1  and  C1_2 
REMARK    2  A    between atoms: C2_4  and  N3_5 
REMARK    3  A    between atoms: N3_5  and  C3_6 
REMARK    4  A    between atoms: N4_14  and  C10_15 
ROOT
HETATM    1  C1  UNL     1      25.254   2.895  51.069  1.00  0.00     0.724 A 
HETATM    2  N2  UNL     1      25.449   2.103  52.153  1.00  0.00    -0.044 NA
HETATM    3  C2  UNL     1      24.477   1.226  52.517  1.00  0.00     0.161 A 
HETATM    4  C7  UNL     1      23.276   1.073  51.856  1.00  0.00     0.059 A 
HETATM    5  C8  UNL     1      22.172   0.297  52.007  1.00  0.00     0.037 A 
HETATM    6  C9  UNL     1      21.320   0.662  50.970  1.00  0.00     0.100 A 
HETATM    7  N4  UNL     1      21.927   1.637  50.232  1.00  0.00    -0.306 N 
HETATM    8  C16 UNL     1      23.144   1.915  50.755  1.00  0.00     0.167 A 
HETATM    9  N5  UNL     1      24.099   2.806  50.362  1.00  0.00    -0.044 NA
ENDROOT
BRANCH   7  10
HETATM   10  C10 UNL     1      21.322   2.239  49.089  1.00  0.00     0.042 A 
HETATM   11  C11 UNL     1      19.946   2.424  49.269  1.00  0.00     0.032 A 
HETATM   12  C12 UNL     1      19.191   3.004  48.258  1.00  0.00     0.028 A 
HETATM   13  C13 UNL     1      19.764   3.414  47.051  1.00  0.00     0.055 A 
HETATM   14 CL1  UNL     1      18.869   4.141  45.760  1.00  0.00    -0.083 Cl
HETATM   15  C14 UNL     1      21.136   3.211  46.915  1.00  0.00     0.058 A 
HETATM   16 CL2  UNL     1      21.976   3.681  45.450  1.00  0.00    -0.082 Cl
HETATM   17  C15 UNL     1      21.910   2.637  47.905  1.00  0.00     0.055 A 
ENDBRANCH   7  10
BRANCH   3  18
HETATM   18  N3  UNL     1      24.676   0.391  53.677  1.00  0.00    -0.340 N 
HETATM   19  H3  UNL     1      24.073   0.049  54.456  1.00  0.00     0.167 HD
BRANCH  18  20
HETATM   20  C3  UNL     1      26.067   0.001  53.641  1.00  0.00     0.036 A 
HETATM   21  C4  UNL     1      27.059   0.269  54.507  1.00  0.00     0.048 A 
HETATM   22  C5  UNL     1      28.057  -0.460  53.742  1.00  0.00     0.015 A 
HETATM   23 BR1  UNL     1      29.857  -1.038  53.576  1.00  0.00    -0.051 Br
HETATM   24  C6  UNL     1      27.092  -0.731  52.882  1.00  0.00     0.048 A 
ENDBRANCH  18  20
ENDBRANCH   3  18
BRANCH   1  25
HETATM   25  N1  UNL     1      26.350   3.759  50.813  1.00  0.00    -0.231 N 
HETATM   26  H1  UNL     1      26.402   4.781  50.618  1.00  0.00     0.174 HD
HETATM   27  H2  UNL     1      27.341   3.504  50.774  1.00  0.00     0.174 HD
ENDBRANCH   1  25
TORSDOF 4
ENDMDL
MODEL 7
REMARK VINA RESULT:      -7.0      1.912      2.109
REMARK  4 active torsions:
REMARK  status: ('A' for Active; 'I' for Inactive)
REMARK    1  A    between atoms: N1_1  and  C1_2 
REMARK    2  A    between atoms: C2_4  and  N3_5 
REMARK    3  A    between atoms: N3_5  and  C3_6 
REMARK    4  A    between atoms: N4_14  and  C10_15 
ROOT
HETATM    1  C1  UNL     1      20.714  -0.090  52.987  1.00  0.00     0.724 A 
HETATM    2  N2  UNL     1      19.864   0.356  52.029  1.00  0.00    -0.044 NA
HETATM    3  C2  UNL     1      20.354   1.095  50.999  1.00  0.00     0.161 A 
HETATM    4  C7  UNL     1      21.681   1.436  50.846  1.00  0.00     0.059 A 
HETATM    5  C8  UNL     1      22.408   2.139  49.940  1.00  0.00     0.037 A 
HETATM    6  C9  UNL     1      23.719   2.089  50.402  1.00  0.00     0.100 A 
HETATM    7  N4  UNL     1      23.745   1.366  51.558  1.00  0.00    -0.306 N 
HETATM    8  C16 UNL     1      22.496   0.944  51.862  1.00  0.00     0.167 A 
HETATM    9  N5  UNL     1      22.037   0.201  52.910  1.00  0.00    -0.044 NA
ENDROOT
BRANCH   7  10
HETATM   10  C10 UNL     1      24.941   1.121  52.298  1.00  0.00     0.042 A 
HETATM   11  C11 UNL     1      25.256   2.195  53.140  1.00  0.00     0.032 A 
HETATM   12  C12 UNL     1      26.387   2.131  53.943  1.00  0.00     0.028 A 
HETATM   13  C13 UNL     1      27.234   1.019  53.938  1.00  0.00     0.055 A 
HETATM   14 CL1  UNL     1      28.656   0.890  54.917  1.00  0.00    -0.083 Cl
HETATM   15  C14 UNL     1      26.882  -0.025  53.085  1.00  0.00     0.058 A 
HETATM   16 CL2  UNL     1      27.861  -1.476  52.986  1.00  0.00    -0.082 Cl
HETATM   17  C15 UNL     1      25.763   0.012  52.278  1.00  0.00     0.055 A 
ENDBRANCH   7  10
BRANCH   3  18
HETATM   18  N3  UNL     1      19.450   1.582  49.985  1.00  0.00    -0.340 N 
HETATM   19  H3  UNL     1      19.422   1.557  48.943  1.00  0.00     0.167 HD
BRANCH  18  20
HETATM   20  C3  UNL     1      18.378   2.236  50.702  1.00  0.00     0.036 A 
HETATM   21  C4  UNL     1      18.320   3.474  51.222  1.00  0.00     0.048 A 
HETATM   22  C5  UNL     1      16.969   3.304  51.730  1.00  0.00     0.015 A 
HETATM   23 BR1  UNL     1      15.488   4.046  52.655  1.00  0.00    -0.051 Br
HETATM   24  C6  UNL     1      17.012   2.084  51.224  1.00  0.00     0.048 A 
ENDBRANCH  18  20
ENDBRANCH   3  18
BRANCH   1  25
HETATM   25  N1  UNL     1      20.061  -0.843  53.998  1.00  0.00    -0.231 N 
HETATM   26  H1  UNL     1      19.075  -0.853  54.333  1.00  0.00     0.174 HD
HETATM   27  H2  UNL     1      20.478  -1.551  54.607  1.00  0.00     0.174 HD
ENDBRANCH   1  25
TORSDOF 4
ENDMDL
MODEL 8
REMARK VINA RESULT:      -6.9      3.287      4.809
REMARK  4 active torsions:
REMARK  status: ('A' for Active; 'I' for Inactive)
REMARK    1  A    between atoms: N1_1  and  C1_2 
REMARK    2  A    between atoms: C2_4  and  N3_5 
REMARK    3  A    between atoms: N3_5  and  C3_6 
REMARK    4  A    between atoms: N4_14  and  C10_15 
ROOT
HETATM    1  C1  UNL     1      17.523   0.326  51.656  1.00  0.00     0.724 A 
HETATM    2  N2  UNL     1      16.795   1.388  51.230  1.00  0.00    -0.044 NA
HETATM    3  C2  UNL     1      17.383   2.611  51.162  1.00  0.00     0.161 A 
HETATM    4  C7  UNL     1      18.695   2.866  51.502  1.00  0.00     0.059 A 
HETATM    5  C8  UNL     1      19.501   3.958  51.525  1.00  0.00     0.037 A 
HETATM    6  C9  UNL     1      20.732   3.498  51.981  1.00  0.00     0.100 A 
HETATM    7  N4  UNL     1      20.634   2.157  52.217  1.00  0.00    -0.306 N 
HETATM    8  C16 UNL     1      19.382   1.732  51.929  1.00  0.00     0.167 A 
HETATM    9  N5  UNL     1      18.823   0.491  52.009  1.00  0.00    -0.044 NA
ENDROOT
BRANCH   7  10
HETATM   10  C10 UNL     1      21.722   1.369  52.698  1.00  0.00     0.042 A 
HETATM   11  C11 UNL     1      22.910   1.656  52.014  1.00  0.00     0.032 A 
HETATM   12  C12 UNL     1      24.079   0.986  52.353  1.00  0.00     0.028 A 
HETATM   13  C13 UNL     1      24.109   0.021  53.363  1.00  0.00     0.055 A 
HETATM   14 CL1  UNL     1      25.537  -0.844  53.822  1.00  0.00    -0.083 Cl
HETATM   15  C14 UNL     1      22.905  -0.233  54.016  1.00  0.00     0.058 A 
HETATM   16 CL2  UNL     1      22.809  -1.421  55.302  1.00  0.00    -0.082 Cl
HETATM   17  C15 UNL     1      21.730   0.420  53.700  1.00  0.00     0.055 A 
ENDBRANCH   7  10
BRANCH   3  18
HETATM   18  N3  UNL     1      16.607   3.745  50.721  1.00  0.00    -0.340 N 
HETATM   19  H3  UNL     1      16.673   4.426  49.934  1.00  0.00     0.167 HD
BRANCH  18  20
HETATM   20  C3  UNL     1      15.520   3.864  51.666  1.00  0.00     0.036 A 
HETATM   21  C4  UNL     1      14.193   3.836  51.460  1.00  0.00     0.048 A 
HETATM   22  C5  UNL     1      13.871   4.016  52.866  1.00  0.00     0.015 A 
HETATM   23 BR1  UNL     1      12.539   4.184  54.207  1.00  0.00    -0.051 Br
HETATM   24  C6  UNL     1      15.173   4.046  53.083  1.00  0.00     0.048 A 
ENDBRANCH  18  20
ENDBRANCH   3  18
BRANCH   1  25
HETATM   25  N1  UNL     1      16.777  -0.882  51.677  1.00  0.00    -0.231 N 
HETATM   26  H1  UNL     1      15.825  -1.120  51.328  1.00  0.00     0.174 HD
HETATM   27  H2  UNL     1      17.072  -1.782  52.064  1.00  0.00     0.174 HD
ENDBRANCH   1  25
TORSDOF 4
ENDMDL
MODEL 9
REMARK VINA RESULT:      -6.9      2.591      3.093
REMARK  4 active torsions:
REMARK  status: ('A' for Active; 'I' for Inactive)
REMARK    1  A    between atoms: N1_1  and  C1_2 
REMARK    2  A    between atoms: C2_4  and  N3_5 
REMARK    3  A    between atoms: N3_5  and  C3_6 
REMARK    4  A    between atoms: N4_14  and  C10_15 
ROOT
HETATM    1  C1  UNL     1      21.902   1.019  52.050  1.00  0.00     0.724 A 
HETATM    2  N2  UNL     1      21.307   2.122  51.529  1.00  0.00    -0.044 NA
HETATM    3  C2  UNL     1      22.080   3.164  51.125  1.00  0.00     0.161 A 
HETATM    4  C7  UNL     1      23.457   3.192  51.204  1.00  0.00     0.059 A 
HETATM    5  C8  UNL     1      24.434   4.077  50.882  1.00  0.00     0.037 A 
HETATM    6  C9  UNL     1      25.627   3.453  51.231  1.00  0.00     0.100 A 
HETATM    7  N4  UNL     1      25.339   2.224  51.749  1.00  0.00    -0.306 N 
HETATM    8  C16 UNL     1      24.000   2.029  51.746  1.00  0.00     0.167 A 
HETATM    9  N5  UNL     1      23.254   0.965  52.161  1.00  0.00    -0.044 NA
ENDROOT
BRANCH   7  10
HETATM   10  C10 UNL     1      26.340   1.318  52.211  1.00  0.00     0.042 A 
HETATM   11  C11 UNL     1      27.424   1.995  52.784  1.00  0.00     0.032 A 
HETATM   12  C12 UNL     1      28.494   1.273  53.295  1.00  0.00     0.028 A 
HETATM   13  C13 UNL     1      28.528  -0.124  53.254  1.00  0.00     0.055 A 
HETATM   14 CL1  UNL     1      29.837  -1.072  53.875  1.00  0.00    -0.083 Cl
HETATM   15  C14 UNL     1      27.429  -0.755  52.676  1.00  0.00     0.058 A 
HETATM   16 CL2  UNL     1      27.349  -2.503  52.564  1.00  0.00    -0.082 Cl
HETATM   17  C15 UNL     1      26.352  -0.061  52.162  1.00  0.00     0.055 A 
ENDBRANCH   7  10
BRANCH   3  18
HETATM   18  N3  UNL     1      21.450   4.344  50.583  1.00  0.00    -0.340 N 
HETATM   19  H3  UNL     1      20.997   5.193  50.985  1.00  0.00     0.167 HD
BRANCH  18  20
HETATM   20  C3  UNL     1      21.525   4.199  49.147  1.00  0.00     0.036 A 
HETATM   21  C4  UNL     1      21.629   5.138  48.191  1.00  0.00     0.048 A 
HETATM   22  C5  UNL     1      21.639   4.172  47.105  1.00  0.00     0.015 A 
HETATM   23 BR1  UNL     1      21.730   3.844  45.238  1.00  0.00    -0.051 Br
HETATM   24  C6  UNL     1      21.536   3.238  48.034  1.00  0.00     0.048 A 
ENDBRANCH  18  20
ENDBRANCH   3  18
BRANCH   1  25
HETATM   25  N1  UNL     1      20.971   0.017  52.429  1.00  0.00    -0.231 N 
HETATM   26  H1  UNL     1      20.993  -0.707  53.177  1.00  0.00     0.174 HD
HETATM   27  H2  UNL     1      20.061  -0.173  52.002  1.00  0.00     0.174 HD
ENDBRANCH   1  25
TORSDOF 4
ENDMDL
