MODEL 1
REMARK VINA RESULT:      -9.2      0.000      0.000
REMARK  6 active torsions:
REMARK  status: ('A' for Active; 'I' for Inactive)
REMARK    1  A    between atoms: C5_5  and  N1_6 
REMARK    2  A    between atoms: N1_6  and  C6_7 
REMARK    3  A    between atoms: C11_14  and  N4_15 
REMARK       I    between atoms: N4_15  and  C12_16 
REMARK    4  A    between atoms: C12_16  and  C13_18 
REMARK    5  A    between atoms: C13_18  and  O2_19 
REMARK    6  A    between atoms: O2_19  and  C14_20 
ROOT
HETATM    1  C6  UNL     1      25.765   0.136  54.509  1.00  0.00     0.142 A 
HETATM    2  N2  UNL     1      25.510  -0.766  55.504  1.00  0.00    -0.224 NA
HETATM    3  C7  UNL     1      24.266  -1.312  55.498  1.00  0.00     0.236 A 
HETATM    4  N3  UNL     1      23.333  -0.993  54.576  1.00  0.00    -0.241 NA
HETATM    5  C8  UNL     1      23.634  -0.101  53.620  1.00  0.00     0.072 A 
HETATM    6  C9  UNL     1      22.651   0.178  52.702  1.00  0.00     0.035 A 
HETATM    7  C10 UNL     1      22.947   1.082  51.704  1.00  0.00     0.032 A 
HETATM    8  C11 UNL     1      24.199   1.667  51.662  1.00  0.00     0.035 A 
HETATM    9  C20 UNL     1      25.209   1.419  52.557  1.00  0.00     0.047 A 
HETATM   10  C21 UNL     1      24.862   0.513  53.528  1.00  0.00     0.041 A 
ENDROOT
BRANCH   8  11
HETATM   11  N4  UNL     1      24.426   2.589  50.585  1.00  0.00    -0.325 N 
HETATM   12  C12 UNL     1      24.186   3.904  51.115  1.00  0.00     0.246 C 
HETATM   13  O1  UNL     1      23.842   3.946  52.350  1.00  0.00    -0.271 OA
HETATM   14  H10 UNL     1      24.687   2.688  49.584  1.00  0.00     0.169 HD
BRANCH  12  15
HETATM   15  C13 UNL     1      24.216   5.279  50.653  1.00  0.00     0.278 C 
BRANCH  15  16
HETATM   16  O2  UNL     1      24.525   5.529  49.331  1.00  0.00    -0.342 OA
BRANCH  16  17
HETATM   17  C14 UNL     1      25.804   5.807  48.924  1.00  0.00     0.069 A 
HETATM   18  C15 UNL     1      26.299   6.996  48.464  1.00  0.00     0.037 A 
HETATM   19  C16 UNL     1      27.569   7.340  48.043  1.00  0.00     0.003 A 
HETATM   20  C17 UNL     1      28.456   6.250  48.122  1.00  0.00     0.000 A 
HETATM   21  C18 UNL     1      28.106   4.976  48.567  1.00  0.00     0.003 A 
HETATM   22  C19 UNL     1      26.793   4.845  48.941  1.00  0.00     0.037 A 
ENDBRANCH  16  17
ENDBRANCH  15  16
ENDBRANCH  12  15
ENDBRANCH   8  11
BRANCH   1  23
HETATM   23  N1  UNL     1      27.089   0.662  54.591  1.00  0.00    -0.340 N 
HETATM   24  H6  UNL     1      27.346   1.577  55.003  1.00  0.00     0.167 HD
BRANCH  23  25
HETATM   25  C5  UNL     1      28.149  -0.156  54.053  1.00  0.00     0.036 A 
HETATM   26  C2  UNL     1      28.286  -1.353  53.184  1.00  0.00    -0.037 A 
HETATM   27  C1  UNL     1      27.279  -2.033  52.609  1.00  0.00     0.021 C 
HETATM   28  C3  UNL     1      29.771  -1.318  53.323  1.00  0.00     0.069 A 
HETATM   29  C4  UNL     1      29.464  -0.153  54.154  1.00  0.00     0.008 A 
ENDBRANCH  23  25
ENDBRANCH   1  23
TORSDOF 6
ENDMDL
MODEL 2
REMARK VINA RESULT:      -9.0      1.138      1.392
REMARK  6 active torsions:
REMARK  status: ('A' for Active; 'I' for Inactive)
REMARK    1  A    between atoms: C5_5  and  N1_6 
REMARK    2  A    between atoms: N1_6  and  C6_7 
REMARK    3  A    between atoms: C11_14  and  N4_15 
REMARK       I    between atoms: N4_15  and  C12_16 
REMARK    4  A    between atoms: C12_16  and  C13_18 
REMARK    5  A    between atoms: C13_18  and  O2_19 
REMARK    6  A    between atoms: O2_19  and  C14_20 
ROOT
HETATM    1  C6  UNL     1      25.263  -0.148  54.445  1.00  0.00     0.142 A 
HETATM    2  N2  UNL     1      25.393  -0.896  55.583  1.00  0.00    -0.224 NA
HETATM    3  C7  UNL     1      24.267  -1.531  56.001  1.00  0.00     0.236 A 
HETATM    4  N3  UNL     1      23.090  -1.438  55.346  1.00  0.00    -0.241 NA
HETATM    5  C8  UNL     1      23.015  -0.692  54.234  1.00  0.00     0.072 A 
HETATM    6  C9  UNL     1      21.797  -0.641  53.603  1.00  0.00     0.035 A 
HETATM    7  C10 UNL     1      21.704   0.111  52.451  1.00  0.00     0.032 A 
HETATM    8  C11 UNL     1      22.820   0.777  51.979  1.00  0.00     0.035 A 
HETATM    9  C20 UNL     1      24.055   0.756  52.577  1.00  0.00     0.047 A 
HETATM   10  C21 UNL     1      24.091  -0.006  53.718  1.00  0.00     0.041 A 
ENDROOT
BRANCH   8  11
HETATM   11  N4  UNL     1      22.638   1.528  50.770  1.00  0.00    -0.325 N 
HETATM   12  C12 UNL     1      22.634   2.916  51.146  1.00  0.00     0.246 C 
HETATM   13  O1  UNL     1      22.780   3.146  52.400  1.00  0.00    -0.271 OA
HETATM   14  H10 UNL     1      22.505   1.473  49.740  1.00  0.00     0.169 HD
BRANCH  12  15
HETATM   15  C13 UNL     1      22.508   4.211  50.505  1.00  0.00     0.278 C 
BRANCH  15  16
HETATM   16  O2  UNL     1      23.095   4.401  49.270  1.00  0.00    -0.342 OA
BRANCH  16  17
HETATM   17  C14 UNL     1      24.428   4.692  49.137  1.00  0.00     0.069 A 
HETATM   18  C15 UNL     1      24.994   5.876  48.753  1.00  0.00     0.037 A 
HETATM   19  C16 UNL     1      26.320   6.233  48.602  1.00  0.00     0.003 A 
HETATM   20  C17 UNL     1      27.183   5.164  48.905  1.00  0.00     0.000 A 
HETATM   21  C18 UNL     1      26.764   3.898  49.308  1.00  0.00     0.003 A 
HETATM   22  C19 UNL     1      25.402   3.751  49.396  1.00  0.00     0.037 A 
ENDBRANCH  16  17
ENDBRANCH  15  16
ENDBRANCH  12  15
ENDBRANCH   8  11
BRANCH   1  23
HETATM   23  N1  UNL     1      26.487   0.485  54.079  1.00  0.00    -0.340 N 
HETATM   24  H6  UNL     1      26.638   1.509  54.021  1.00  0.00     0.167 HD
BRANCH  23  25
HETATM   25  C5  UNL     1      27.599  -0.379  53.766  1.00  0.00     0.036 A 
HETATM   26  C2  UNL     1      27.852  -1.607  52.969  1.00  0.00    -0.037 A 
HETATM   27  C1  UNL     1      26.944  -2.277  52.238  1.00  0.00     0.021 C 
HETATM   28  C3  UNL     1      29.286  -1.609  53.376  1.00  0.00     0.069 A 
HETATM   29  C4  UNL     1      28.873  -0.410  54.105  1.00  0.00     0.008 A 
ENDBRANCH  23  25
ENDBRANCH   1  23
TORSDOF 6
ENDMDL
MODEL 3
REMARK VINA RESULT:      -8.7      1.444      2.276
REMARK  6 active torsions:
REMARK  status: ('A' for Active; 'I' for Inactive)
REMARK    1  A    between atoms: C5_5  and  N1_6 
REMARK    2  A    between atoms: N1_6  and  C6_7 
REMARK    3  A    between atoms: C11_14  and  N4_15 
REMARK       I    between atoms: N4_15  and  C12_16 
REMARK    4  A    between atoms: C12_16  and  C13_18 
REMARK    5  A    between atoms: C13_18  and  O2_19 
REMARK    6  A    between atoms: O2_19  and  C14_20 
ROOT
HETATM    1  C6  UNL     1      24.855  -0.400  53.967  1.00  0.00     0.142 A 
HETATM    2  N2  UNL     1      25.141  -1.098  55.107  1.00  0.00    -0.224 NA
HETATM    3  C7  UNL     1      24.066  -1.511  55.830  1.00  0.00     0.236 A 
HETATM    4  N3  UNL     1      22.795  -1.254  55.458  1.00  0.00    -0.241 NA
HETATM    5  C8  UNL     1      22.568  -0.565  54.329  1.00  0.00     0.072 A 
HETATM    6  C9  UNL     1      21.255  -0.342  53.993  1.00  0.00     0.035 A 
HETATM    7  C10 UNL     1      21.002   0.354  52.830  1.00  0.00     0.032 A 
HETATM    8  C11 UNL     1      22.058   0.795  52.056  1.00  0.00     0.035 A 
HETATM    9  C20 UNL     1      23.383   0.597  52.353  1.00  0.00     0.047 A 
HETATM   10  C21 UNL     1      23.578  -0.100  53.519  1.00  0.00     0.041 A 
ENDROOT
BRANCH   8  11
HETATM   11  N4  UNL     1      21.706   1.502  50.857  1.00  0.00    -0.325 N 
HETATM   12  C12 UNL     1      22.060   2.879  51.075  1.00  0.00     0.246 C 
HETATM   13  O1  UNL     1      22.574   3.141  52.221  1.00  0.00    -0.271 OA
HETATM   14  H10 UNL     1      21.297   1.421  49.904  1.00  0.00     0.169 HD
BRANCH  12  15
HETATM   15  C13 UNL     1      22.012   4.136  50.352  1.00  0.00     0.278 C 
BRANCH  15  16
HETATM   16  O2  UNL     1      22.742   4.261  49.187  1.00  0.00    -0.342 OA
BRANCH  16  17
HETATM   17  C14 UNL     1      24.109   4.347  49.192  1.00  0.00     0.069 A 
HETATM   18  C15 UNL     1      25.012   3.359  49.472  1.00  0.00     0.037 A 
HETATM   19  C16 UNL     1      26.393   3.381  49.493  1.00  0.00     0.003 A 
HETATM   20  C17 UNL     1      26.898   4.653  49.164  1.00  0.00     0.000 A 
HETATM   21  C18 UNL     1      26.111   5.761  48.855  1.00  0.00     0.003 A 
HETATM   22  C19 UNL     1      24.760   5.526  48.891  1.00  0.00     0.037 A 
ENDBRANCH  16  17
ENDBRANCH  15  16
ENDBRANCH  12  15
ENDBRANCH   8  11
BRANCH   1  23
HETATM   23  N1  UNL     1      26.037  -0.003  53.273  1.00  0.00    -0.340 N 
HETATM   24  H6  UNL     1      26.207   0.935  52.868  1.00  0.00     0.167 HD
BRANCH  23  25
HETATM   25  C5  UNL     1      27.071  -0.998  53.128  1.00  0.00     0.036 A 
HETATM   26  C2  UNL     1      28.513  -1.146  53.452  1.00  0.00    -0.037 A 
HETATM   27  C1  UNL     1      29.284  -0.232  54.066  1.00  0.00     0.021 C 
HETATM   28  C3  UNL     1      28.537  -2.511  52.852  1.00  0.00     0.069 A 
HETATM   29  C4  UNL     1      27.127  -2.208  52.606  1.00  0.00     0.008 A 
ENDBRANCH  23  25
ENDBRANCH   1  23
TORSDOF 6
ENDMDL
MODEL 4
REMARK VINA RESULT:      -8.5      3.151      6.455
REMARK  6 active torsions:
REMARK  status: ('A' for Active; 'I' for Inactive)
REMARK    1  A    between atoms: C5_5  and  N1_6 
REMARK    2  A    between atoms: N1_6  and  C6_7 
REMARK    3  A    between atoms: C11_14  and  N4_15 
REMARK       I    between atoms: N4_15  and  C12_16 
REMARK    4  A    between atoms: C12_16  and  C13_18 
REMARK    5  A    between atoms: C13_18  and  O2_19 
REMARK    6  A    between atoms: O2_19  and  C14_20 
ROOT
HETATM    1  C6  UNL     1      21.063   1.432  51.844  1.00  0.00     0.142 A 
HETATM    2  N2  UNL     1      19.725   1.698  51.933  1.00  0.00    -0.224 NA
HETATM    3  C7  UNL     1      19.387   3.014  51.959  1.00  0.00     0.236 A 
HETATM    4  N3  UNL     1      20.302   4.004  51.902  1.00  0.00    -0.241 NA
HETATM    5  C8  UNL     1      21.603   3.690  51.814  1.00  0.00     0.072 A 
HETATM    6  C9  UNL     1      22.489   4.738  51.748  1.00  0.00     0.035 A 
HETATM    7  C10 UNL     1      23.830   4.435  51.645  1.00  0.00     0.032 A 
HETATM    8  C11 UNL     1      24.231   3.112  51.612  1.00  0.00     0.035 A 
HETATM    9  C20 UNL     1      23.382   2.035  51.677  1.00  0.00     0.047 A 
HETATM   10  C21 UNL     1      22.061   2.393  51.779  1.00  0.00     0.041 A 
ENDROOT
BRANCH   8  11
HETATM   11  N4  UNL     1      25.643   2.886  51.494  1.00  0.00    -0.325 N 
HETATM   12  C12 UNL     1      26.128   2.617  52.821  1.00  0.00     0.246 C 
HETATM   13  O1  UNL     1      25.240   2.644  53.747  1.00  0.00    -0.271 OA
HETATM   14  H10 UNL     1      26.451   2.842  50.841  1.00  0.00     0.169 HD
BRANCH  12  15
HETATM   15  C13 UNL     1      27.387   2.307  53.471  1.00  0.00     0.278 C 
BRANCH  15  16
HETATM   16  O2  UNL     1      27.450   1.206  54.303  1.00  0.00    -0.342 OA
BRANCH  16  17
HETATM   17  C14 UNL     1      27.917  -0.007  53.868  1.00  0.00     0.069 A 
HETATM   18  C15 UNL     1      27.239  -0.966  53.169  1.00  0.00     0.037 A 
HETATM   19  C16 UNL     1      27.649  -2.200  52.702  1.00  0.00     0.003 A 
HETATM   20  C17 UNL     1      28.993  -2.458  53.028  1.00  0.00     0.000 A 
HETATM   21  C18 UNL     1      29.817  -1.585  53.736  1.00  0.00     0.003 A 
HETATM   22  C19 UNL     1      29.214  -0.410  54.108  1.00  0.00     0.037 A 
ENDBRANCH  16  17
ENDBRANCH  15  16
ENDBRANCH  12  15
ENDBRANCH   8  11
BRANCH   1  23
HETATM   23  N1  UNL     1      21.330   0.031  51.826  1.00  0.00    -0.340 N 
HETATM   24  H6  UNL     1      21.393  -0.555  50.974  1.00  0.00     0.167 HD
BRANCH  23  25
HETATM   25  C5  UNL     1      21.525  -0.611  53.102  1.00  0.00     0.036 A 
HETATM   26  C2  UNL     1      22.647  -0.901  54.032  1.00  0.00    -0.037 A 
HETATM   27  C1  UNL     1      23.933  -0.553  53.854  1.00  0.00     0.021 C 
HETATM   28  C3  UNL     1      21.723  -1.596  54.974  1.00  0.00     0.069 A 
HETATM   29  C4  UNL     1      20.736  -1.232  53.957  1.00  0.00     0.008 A 
ENDBRANCH  23  25
ENDBRANCH   1  23
TORSDOF 6
ENDMDL
MODEL 5
REMARK VINA RESULT:      -8.5      2.360      5.911
REMARK  6 active torsions:
REMARK  status: ('A' for Active; 'I' for Inactive)
REMARK    1  A    between atoms: C5_5  and  N1_6 
REMARK    2  A    between atoms: N1_6  and  C6_7 
REMARK    3  A    between atoms: C11_14  and  N4_15 
REMARK       I    between atoms: N4_15  and  C12_16 
REMARK    4  A    between atoms: C12_16  and  C13_18 
REMARK    5  A    between atoms: C13_18  and  O2_19 
REMARK    6  A    between atoms: O2_19  and  C14_20 
ROOT
HETATM    1  C6  UNL     1      26.897   1.841  51.986  1.00  0.00     0.142 A 
HETATM    2  N2  UNL     1      28.062   2.468  52.333  1.00  0.00    -0.224 NA
HETATM    3  C7  UNL     1      28.495   2.245  53.601  1.00  0.00     0.236 A 
HETATM    4  N3  UNL     1      27.829   1.459  54.473  1.00  0.00    -0.241 NA
HETATM    5  C8  UNL     1      26.690   0.866  54.083  1.00  0.00     0.072 A 
HETATM    6  C9  UNL     1      26.059   0.069  55.007  1.00  0.00     0.035 A 
HETATM    7  C10 UNL     1      24.894  -0.559  54.620  1.00  0.00     0.032 A 
HETATM    8  C11 UNL     1      24.409  -0.369  53.339  1.00  0.00     0.035 A 
HETATM    9  C20 UNL     1      25.004   0.418  52.386  1.00  0.00     0.047 A 
HETATM   10  C21 UNL     1      26.158   1.019  52.823  1.00  0.00     0.041 A 
ENDROOT
BRANCH   8  11
HETATM   11  N4  UNL     1      23.197  -1.067  53.017  1.00  0.00    -0.325 N 
HETATM   12  C12 UNL     1      22.126  -0.120  53.169  1.00  0.00     0.246 C 
HETATM   13  O1  UNL     1      22.480   1.056  53.539  1.00  0.00    -0.271 OA
HETATM   14  H10 UNL     1      22.784  -1.975  52.724  1.00  0.00     0.169 HD
BRANCH  12  15
HETATM   15  C13 UNL     1      20.683  -0.084  53.024  1.00  0.00     0.278 C 
BRANCH  15  16
HETATM   16  O2  UNL     1      20.147   0.137  51.770  1.00  0.00    -0.342 OA
BRANCH  16  17
HETATM   17  C14 UNL     1      20.685   1.051  50.902  1.00  0.00     0.069 A 
HETATM   18  C15 UNL     1      21.514   0.813  49.841  1.00  0.00     0.037 A 
HETATM   19  C16 UNL     1      22.086   1.683  48.932  1.00  0.00     0.003 A 
HETATM   20  C17 UNL     1      21.720   3.017  49.190  1.00  0.00     0.000 A 
HETATM   21  C18 UNL     1      20.887   3.423  50.231  1.00  0.00     0.003 A 
HETATM   22  C19 UNL     1      20.424   2.400  51.020  1.00  0.00     0.037 A 
ENDBRANCH  16  17
ENDBRANCH  15  16
ENDBRANCH  12  15
ENDBRANCH   8  11
BRANCH   1  23
HETATM   23  N1  UNL     1      26.514   2.130  50.643  1.00  0.00    -0.340 N 
HETATM   24  H6  UNL     1      26.623   1.487  49.837  1.00  0.00     0.167 HD
BRANCH  23  25
HETATM   25  C5  UNL     1      25.931   3.426  50.397  1.00  0.00     0.036 A 
HETATM   26  C2  UNL     1      26.237   4.640  49.597  1.00  0.00    -0.037 A 
HETATM   27  C1  UNL     1      27.296   4.808  48.787  1.00  0.00     0.021 C 
HETATM   28  C3  UNL     1      25.013   5.321  50.111  1.00  0.00     0.069 A 
HETATM   29  C4  UNL     1      24.857   4.057  50.831  1.00  0.00     0.008 A 
ENDBRANCH  23  25
ENDBRANCH   1  23
TORSDOF 6
ENDMDL
MODEL 6
REMARK VINA RESULT:      -8.4      1.332      2.156
REMARK  6 active torsions:
REMARK  status: ('A' for Active; 'I' for Inactive)
REMARK    1  A    between atoms: C5_5  and  N1_6 
REMARK    2  A    between atoms: N1_6  and  C6_7 
REMARK    3  A    between atoms: C11_14  and  N4_15 
REMARK       I    between atoms: N4_15  and  C12_16 
REMARK    4  A    between atoms: C12_16  and  C13_18 
REMARK    5  A    between atoms: C13_18  and  O2_19 
REMARK    6  A    between atoms: O2_19  and  C14_20 
ROOT
HETATM    1  C6  UNL     1      23.823   0.149  53.473  1.00  0.00     0.142 A 
HETATM    2  N2  UNL     1      23.395  -0.701  54.455  1.00  0.00    -0.224 NA
HETATM    3  C7  UNL     1      22.133  -1.184  54.306  1.00  0.00     0.236 A 
HETATM    4  N3  UNL     1      21.343  -0.854  53.263  1.00  0.00    -0.241 NA
HETATM    5  C8  UNL     1      21.811  -0.016  52.325  1.00  0.00     0.072 A 
HETATM    6  C9  UNL     1      20.969   0.277  51.281  1.00  0.00     0.035 A 
HETATM    7  C10 UNL     1      21.437   1.127  50.301  1.00  0.00     0.032 A 
HETATM    8  C11 UNL     1      22.714   1.646  50.401  1.00  0.00     0.035 A 
HETATM    9  C20 UNL     1      23.588   1.382  51.426  1.00  0.00     0.047 A 
HETATM   10  C21 UNL     1      23.072   0.533  52.372  1.00  0.00     0.041 A 
ENDROOT
BRANCH   8  11
HETATM   11  N4  UNL     1      23.125   2.513  49.334  1.00  0.00    -0.325 N 
HETATM   12  C12 UNL     1      22.923   3.859  49.799  1.00  0.00     0.246 C 
HETATM   13  O1  UNL     1      22.448   3.966  50.985  1.00  0.00    -0.271 OA
HETATM   14  H10 UNL     1      23.503   2.560  48.366  1.00  0.00     0.169 HD
BRANCH  12  15
HETATM   15  C13 UNL     1      23.103   5.212  49.308  1.00  0.00     0.278 C 
BRANCH  15  16
HETATM   16  O2  UNL     1      24.147   5.966  49.807  1.00  0.00    -0.342 OA
BRANCH  16  17
HETATM   17  C14 UNL     1      25.423   5.852  49.318  1.00  0.00     0.069 A 
HETATM   18  C15 UNL     1      26.228   4.746  49.323  1.00  0.00     0.037 A 
HETATM   19  C16 UNL     1      27.513   4.566  48.849  1.00  0.00     0.003 A 
HETATM   20  C17 UNL     1      28.026   5.746  48.279  1.00  0.00     0.000 A 
HETATM   21  C18 UNL     1      27.334   6.953  48.199  1.00  0.00     0.003 A 
HETATM   22  C19 UNL     1      26.069   6.919  48.730  1.00  0.00     0.037 A 
ENDBRANCH  16  17
ENDBRANCH  15  16
ENDBRANCH  12  15
ENDBRANCH   8  11
BRANCH   1  23
HETATM   23  N1  UNL     1      25.152   0.610  53.707  1.00  0.00    -0.340 N 
HETATM   24  H6  UNL     1      25.405   1.539  54.090  1.00  0.00     0.167 HD
BRANCH  23  25
HETATM   25  C5  UNL     1      26.224  -0.298  53.380  1.00  0.00     0.036 A 
HETATM   26  C2  UNL     1      27.655  -0.489  53.731  1.00  0.00    -0.037 A 
HETATM   27  C1  UNL     1      28.368   0.267  54.583  1.00  0.00     0.021 C 
HETATM   28  C3  UNL     1      27.748  -1.670  52.824  1.00  0.00     0.069 A 
HETATM   29  C4  UNL     1      26.341  -1.346  52.588  1.00  0.00     0.008 A 
ENDBRANCH  23  25
ENDBRANCH   1  23
TORSDOF 6
ENDMDL
MODEL 7
REMARK VINA RESULT:      -8.1      2.416      7.846
REMARK  6 active torsions:
REMARK  status: ('A' for Active; 'I' for Inactive)
REMARK    1  A    between atoms: C5_5  and  N1_6 
REMARK    2  A    between atoms: N1_6  and  C6_7 
REMARK    3  A    between atoms: C11_14  and  N4_15 
REMARK       I    between atoms: N4_15  and  C12_16 
REMARK    4  A    between atoms: C12_16  and  C13_18 
REMARK    5  A    between atoms: C13_18  and  O2_19 
REMARK    6  A    between atoms: O2_19  and  C14_20 
ROOT
HETATM    1  C6  UNL     1      25.587   6.499  48.941  1.00  0.00     0.142 A 
HETATM    2  N2  UNL     1      24.889   7.404  48.191  1.00  0.00    -0.224 NA
HETATM    3  C7  UNL     1      23.678   6.984  47.738  1.00  0.00     0.236 A 
HETATM    4  N3  UNL     1      23.186   5.756  48.004  1.00  0.00    -0.241 NA
HETATM    5  C8  UNL     1      23.910   4.905  48.746  1.00  0.00     0.072 A 
HETATM    6  C9  UNL     1      23.356   3.673  48.994  1.00  0.00     0.035 A 
HETATM    7  C10 UNL     1      24.080   2.789  49.765  1.00  0.00     0.032 A 
HETATM    8  C11 UNL     1      25.318   3.166  50.254  1.00  0.00     0.035 A 
HETATM    9  C20 UNL     1      25.910   4.383  50.030  1.00  0.00     0.047 A 
HETATM   10  C21 UNL     1      25.147   5.223  49.258  1.00  0.00     0.041 A 
ENDROOT
BRANCH   8  11
HETATM   11  N4  UNL     1      25.999   2.190  51.056  1.00  0.00    -0.325 N 
HETATM   12  C12 UNL     1      25.532   2.369  52.404  1.00  0.00     0.246 C 
HETATM   13  O1  UNL     1      24.670   3.304  52.568  1.00  0.00    -0.271 OA
HETATM   14  H10 UNL     1      26.693   1.415  51.055  1.00  0.00     0.169 HD
BRANCH  12  15
HETATM   15  C13 UNL     1      25.750   1.780  53.712  1.00  0.00     0.278 C 
BRANCH  15  16
HETATM   16  O2  UNL     1      25.807   0.405  53.820  1.00  0.00    -0.342 OA
BRANCH  16  17
HETATM   17  C14 UNL     1      26.978  -0.288  53.658  1.00  0.00     0.069 A 
HETATM   18  C15 UNL     1      28.226   0.057  54.098  1.00  0.00     0.037 A 
HETATM   19  C16 UNL     1      29.439  -0.593  53.970  1.00  0.00     0.003 A 
HETATM   20  C17 UNL     1      29.307  -1.802  53.263  1.00  0.00     0.000 A 
HETATM   21  C18 UNL     1      28.107  -2.293  52.749  1.00  0.00     0.003 A 
HETATM   22  C19 UNL     1      27.018  -1.493  52.986  1.00  0.00     0.037 A 
ENDBRANCH  16  17
ENDBRANCH  15  16
ENDBRANCH  12  15
ENDBRANCH   8  11
BRANCH   1  23
HETATM   23  N1  UNL     1      26.844   7.018  49.372  1.00  0.00    -0.340 N 
HETATM   24  H6  UNL     1      27.087   7.264  50.349  1.00  0.00     0.167 HD
BRANCH  23  25
HETATM   25  C5  UNL     1      27.849   7.216  48.358  1.00  0.00     0.036 A 
HETATM   26  C2  UNL     1      29.008   6.477  47.794  1.00  0.00    -0.037 A 
HETATM   27  C1  UNL     1      29.425   5.255  48.166  1.00  0.00     0.021 C 
HETATM   28  C3  UNL     1      29.306   7.601  46.860  1.00  0.00     0.069 A 
HETATM   29  C4  UNL     1      28.140   8.191  47.518  1.00  0.00     0.008 A 
ENDBRANCH  23  25
ENDBRANCH   1  23
TORSDOF 6
ENDMDL
MODEL 8
REMARK VINA RESULT:      -8.0      2.046      3.087
REMARK  6 active torsions:
REMARK  status: ('A' for Active; 'I' for Inactive)
REMARK    1  A    between atoms: C5_5  and  N1_6 
REMARK    2  A    between atoms: N1_6  and  C6_7 
REMARK    3  A    between atoms: C11_14  and  N4_15 
REMARK       I    between atoms: N4_15  and  C12_16 
REMARK    4  A    between atoms: C12_16  and  C13_18 
REMARK    5  A    between atoms: C13_18  and  O2_19 
REMARK    6  A    between atoms: O2_19  and  C14_20 
ROOT
HETATM    1  C6  UNL     1      23.464   1.090  52.182  1.00  0.00     0.142 A 
HETATM    2  N2  UNL     1      22.661  -0.015  52.247  1.00  0.00    -0.224 NA
HETATM    3  C7  UNL     1      21.329   0.232  52.360  1.00  0.00     0.236 A 
HETATM    4  N3  UNL     1      20.819   1.481  52.406  1.00  0.00    -0.241 NA
HETATM    5  C8  UNL     1      21.650   2.531  52.338  1.00  0.00     0.072 A 
HETATM    6  C9  UNL     1      21.077   3.779  52.379  1.00  0.00     0.035 A 
HETATM    7  C10 UNL     1      21.914   4.871  52.298  1.00  0.00     0.032 A 
HETATM    8  C11 UNL     1      23.278   4.678  52.180  1.00  0.00     0.035 A 
HETATM    9  C20 UNL     1      23.894   3.452  52.137  1.00  0.00     0.047 A 
HETATM   10  C21 UNL     1      23.015   2.401  52.222  1.00  0.00     0.041 A 
ENDROOT
BRANCH   8  11
HETATM   11  N4  UNL     1      24.075   5.867  52.091  1.00  0.00    -0.325 N 
HETATM   12  C12 UNL     1      24.138   6.216  50.697  1.00  0.00     0.246 C 
HETATM   13  O1  UNL     1      23.509   5.428  49.904  1.00  0.00    -0.271 OA
HETATM   14  H10 UNL     1      24.625   6.571  52.624  1.00  0.00     0.169 HD
BRANCH  12  15
HETATM   15  C13 UNL     1      24.730   7.245  49.864  1.00  0.00     0.278 C 
BRANCH  15  16
HETATM   16  O2  UNL     1      25.188   6.901  48.607  1.00  0.00    -0.342 OA
BRANCH  16  17
HETATM   17  C14 UNL     1      26.516   6.681  48.353  1.00  0.00     0.069 A 
HETATM   18  C15 UNL     1      27.423   7.552  47.815  1.00  0.00     0.037 A 
HETATM   19  C16 UNL     1      28.767   7.394  47.537  1.00  0.00     0.003 A 
HETATM   20  C17 UNL     1      29.223   6.109  47.884  1.00  0.00     0.000 A 
HETATM   21  C18 UNL     1      28.425   5.110  48.440  1.00  0.00     0.003 A 
HETATM   22  C19 UNL     1      27.116   5.472  48.637  1.00  0.00     0.037 A 
ENDBRANCH  16  17
ENDBRANCH  15  16
ENDBRANCH  12  15
ENDBRANCH   8  11
BRANCH   1  23
HETATM   23  N1  UNL     1      24.842   0.742  52.068  1.00  0.00    -0.340 N 
HETATM   24  H6  UNL     1      25.359   0.627  51.177  1.00  0.00     0.167 HD
BRANCH  23  25
HETATM   25  C5  UNL     1      25.565   0.533  53.299  1.00  0.00     0.036 A 
HETATM   26  C2  UNL     1      26.734   1.118  54.005  1.00  0.00    -0.037 A 
HETATM   27  C1  UNL     1      27.482   2.150  53.577  1.00  0.00     0.021 C 
HETATM   28  C3  UNL     1      26.584   0.140  55.121  1.00  0.00     0.069 A 
HETATM   29  C4  UNL     1      25.461  -0.316  54.302  1.00  0.00     0.008 A 
ENDBRANCH  23  25
ENDBRANCH   1  23
TORSDOF 6
ENDMDL
MODEL 9
REMARK VINA RESULT:      -7.9      2.459      5.189
REMARK  6 active torsions:
REMARK  status: ('A' for Active; 'I' for Inactive)
REMARK    1  A    between atoms: C5_5  and  N1_6 
REMARK    2  A    between atoms: N1_6  and  C6_7 
REMARK    3  A    between atoms: C11_14  and  N4_15 
REMARK       I    between atoms: N4_15  and  C12_16 
REMARK    4  A    between atoms: C12_16  and  C13_18 
REMARK    5  A    between atoms: C13_18  and  O2_19 
REMARK    6  A    between atoms: O2_19  and  C14_20 
ROOT
HETATM    1  C6  UNL     1      21.296   0.759  52.986  1.00  0.00     0.142 A 
HETATM    2  N2  UNL     1      21.111  -0.571  53.242  1.00  0.00    -0.224 NA
HETATM    3  C7  UNL     1      22.244  -1.293  53.451  1.00  0.00     0.236 A 
HETATM    4  N3  UNL     1      23.476  -0.744  53.411  1.00  0.00    -0.241 NA
HETATM    5  C8  UNL     1      23.603   0.567  53.156  1.00  0.00     0.072 A 
HETATM    6  C9  UNL     1      24.879   1.074  53.137  1.00  0.00     0.035 A 
HETATM    7  C10 UNL     1      25.029   2.421  52.890  1.00  0.00     0.032 A 
HETATM    8  C11 UNL     1      23.909   3.203  52.672  1.00  0.00     0.035 A 
HETATM    9  C20 UNL     1      22.617   2.740  52.679  1.00  0.00     0.047 A 
HETATM   10  C21 UNL     1      22.527   1.394  52.930  1.00  0.00     0.041 A 
ENDROOT
BRANCH   8  11
HETATM   11  N4  UNL     1      24.154   4.597  52.431  1.00  0.00    -0.325 N 
HETATM   12  C12 UNL     1      24.463   4.723  51.032  1.00  0.00     0.246 C 
HETATM   13  O1  UNL     1      24.453   3.627  50.365  1.00  0.00    -0.271 OA
HETATM   14  H10 UNL     1      24.201   5.544  52.858  1.00  0.00     0.169 HD
BRANCH  12  15
HETATM   15  C13 UNL     1      24.802   5.772  50.088  1.00  0.00     0.278 C 
BRANCH  15  16
HETATM   16  O2  UNL     1      25.351   5.418  48.872  1.00  0.00    -0.342 OA
BRANCH  16  17
HETATM   17  C14 UNL     1      26.616   5.801  48.508  1.00  0.00     0.069 A 
HETATM   18  C15 UNL     1      27.768   5.069  48.580  1.00  0.00     0.037 A 
HETATM   19  C16 UNL     1      29.065   5.393  48.230  1.00  0.00     0.003 A 
HETATM   20  C17 UNL     1      29.154   6.702  47.722  1.00  0.00     0.000 A 
HETATM   21  C18 UNL     1      28.074   7.573  47.586  1.00  0.00     0.003 A 
HETATM   22  C19 UNL     1      26.871   7.055  47.992  1.00  0.00     0.037 A 
ENDBRANCH  16  17
ENDBRANCH  15  16
ENDBRANCH  12  15
ENDBRANCH   8  11
BRANCH   1  23
HETATM   23  N1  UNL     1      20.059   1.439  52.776  1.00  0.00    -0.340 N 
HETATM   24  H6  UNL     1      19.720   2.248  53.327  1.00  0.00     0.167 HD
BRANCH  23  25
HETATM   25  C5  UNL     1      19.220   0.950  51.709  1.00  0.00     0.036 A 
HETATM   26  C2  UNL     1      19.250   0.881  50.226  1.00  0.00    -0.037 A 
HETATM   27  C1  UNL     1      20.240   1.324  49.432  1.00  0.00     0.021 C 
HETATM   28  C3  UNL     1      17.912   0.223  50.202  1.00  0.00     0.069 A 
HETATM   29  C4  UNL     1      18.039   0.366  51.652  1.00  0.00     0.008 A 
ENDBRANCH  23  25
ENDBRANCH   1  23
TORSDOF 6
ENDMDL
