MODEL 1
REMARK VINA RESULT:      -6.7      0.000      0.000
REMARK  6 active torsions:
REMARK  status: ('A' for Active; 'I' for Inactive)
REMARK    1  A    between atoms: C2_2  and  N1_4 
REMARK    2  A    between atoms: N1_4  and  C4_5 
REMARK    3  A    between atoms: N1_4  and  C15_21 
REMARK    4  A    between atoms: C4_5  and  C5_6 
REMARK    5  A    between atoms: C6_7  and  C7_8 
REMARK       I    between atoms: C7_8  and  N2_10 
REMARK    6  A    between atoms: N2_10  and  C8_11 
ROOT
HETATM    1  C7  UNL     1      28.068   5.917  48.283  1.00  0.00     0.297 C 
HETATM    2  O1  UNL     1      27.488   6.915  47.779  1.00  0.00    -0.258 OA
HETATM    3  N2  UNL     1      29.475   5.802  48.270  1.00  0.00    -0.342 N 
HETATM    4  H10 UNL     1      29.966   4.963  48.697  1.00  0.00     0.164 HD
ENDROOT
BRANCH   3   5
HETATM    5  C8  UNL     1      30.465   6.684  47.743  1.00  0.00     0.117 A 
HETATM    6  C9  UNL     1      30.903   7.676  48.870  1.00  0.00     0.041 A 
HETATM    7  C10 UNL     1      32.207   7.248  48.814  1.00  0.00     0.024 A 
HETATM    8  C11 UNL     1      33.127   8.277  48.138  1.00  0.00     0.014 C 
HETATM    9  C14 UNL     1      32.395   5.774  49.125  1.00  0.00    -0.006 A 
HETATM   10  P1  UNL     1      32.021   5.878  47.354  1.00  0.00    -0.073 P 
HETATM   11  C12 UNL     1      34.217   7.612  47.773  1.00  0.00     0.047 C 
HETATM   12 CL1  UNL     1      35.830   8.008  48.352  1.00  0.00    -0.086 Cl
HETATM   13  C13 UNL     1      33.458   6.657  46.809  1.00  0.00     0.237 C 
HETATM   14  F1  UNL     1      34.457   5.629  46.698  1.00  0.00    -0.239 F 
HETATM   15  H15 UNL     1      31.929   4.638  46.941  1.00  0.00     0.059 HD
ENDBRANCH   3   5
BRANCH   1  16
HETATM   16  C6  UNL     1      27.341   4.832  48.899  1.00  0.00    -0.004 C 
HETATM   17  C5  UNL     1      26.733   3.894  49.411  1.00  0.00    -0.066 C 
BRANCH  17  18
HETATM   18  C4  UNL     1      26.006   2.819  50.011  1.00  0.00     0.367 C 
BRANCH  18  19
HETATM   19  N1  UNL     1      26.085   2.888  51.488  1.00  0.00     0.107 N 
BRANCH  19  20
HETATM   20  C2  UNL     1      27.141   1.930  51.884  1.00  0.00     0.216 C 
HETATM   21  C1  UNL     1      26.493   0.570  51.954  1.00  0.00     0.042 C 
HETATM   22  C3  UNL     1      27.692   2.243  53.258  1.00  0.00     0.042 C 
ENDBRANCH  19  20
BRANCH  19  23
HETATM   23  C15 UNL     1      24.794   2.403  51.964  1.00  0.00     0.216 C 
HETATM   24  C16 UNL     1      23.835   2.409  50.798  1.00  0.00     0.042 C 
HETATM   25  C17 UNL     1      24.190   3.110  53.106  1.00  0.00     0.042 C 
ENDBRANCH  19  23
ENDBRANCH  18  19
ENDBRANCH  17  18
ENDBRANCH   1  16
TORSDOF 6
ENDMDL
MODEL 2
REMARK VINA RESULT:      -6.6      7.680      9.154
REMARK  6 active torsions:
REMARK  status: ('A' for Active; 'I' for Inactive)
REMARK    1  A    between atoms: C2_2  and  N1_4 
REMARK    2  A    between atoms: N1_4  and  C4_5 
REMARK    3  A    between atoms: N1_4  and  C15_21 
REMARK    4  A    between atoms: C4_5  and  C5_6 
REMARK    5  A    between atoms: C6_7  and  C7_8 
REMARK       I    between atoms: C7_8  and  N2_10 
REMARK    6  A    between atoms: N2_10  and  C8_11 
ROOT
HETATM    1  C7  UNL     1      22.839  -0.490  53.479  1.00  0.00     0.297 C 
HETATM    2  O1  UNL     1      22.535  -1.339  54.359  1.00  0.00    -0.258 OA
HETATM    3  N2  UNL     1      24.186  -0.210  53.165  1.00  0.00    -0.342 N 
HETATM    4  H10 UNL     1      24.445   0.503  52.421  1.00  0.00     0.164 HD
ENDROOT
BRANCH   3   5
HETATM    5  C8  UNL     1      25.389  -0.753  53.705  1.00  0.00     0.117 A 
HETATM    6  C9  UNL     1      26.169  -1.481  52.561  1.00  0.00     0.041 A 
HETATM    7  C10 UNL     1      27.259  -0.658  52.707  1.00  0.00     0.024 A 
HETATM    8  C11 UNL     1      28.439  -1.373  53.387  1.00  0.00     0.014 C 
HETATM    9  C14 UNL     1      26.967   0.813  52.474  1.00  0.00    -0.006 A 
HETATM   10  P1  UNL     1      26.582   0.488  54.214  1.00  0.00    -0.073 P 
HETATM   11  C12 UNL     1      29.237  -0.414  53.839  1.00  0.00     0.047 C 
HETATM   12 CL1  UNL     1      30.912  -0.231  53.333  1.00  0.00    -0.086 Cl
HETATM   13  C13 UNL     1      28.173   0.184  54.803  1.00  0.00     0.237 C 
HETATM   14  F1  UNL     1      28.778   1.472  55.014  1.00  0.00    -0.239 F 
HETATM   15  H15 UNL     1      26.075   1.603  54.678  1.00  0.00     0.059 HD
ENDBRANCH   3   5
BRANCH   1  16
HETATM   16  C6  UNL     1      21.841   0.248  52.742  1.00  0.00    -0.004 C 
HETATM   17  C5  UNL     1      21.005   0.877  52.096  1.00  0.00    -0.066 C 
BRANCH  17  18
HETATM   18  C4  UNL     1      20.023   1.619  51.368  1.00  0.00     0.367 C 
BRANCH  18  19
HETATM   19  N1  UNL     1      20.664   2.506  50.370  1.00  0.00     0.107 N 
BRANCH  19  20
HETATM   20  C2  UNL     1      19.978   3.812  50.488  1.00  0.00     0.216 C 
HETATM   21  C1  UNL     1      20.965   4.770  51.105  1.00  0.00     0.042 C 
HETATM   22  C3  UNL     1      18.781   3.733  51.411  1.00  0.00     0.042 C 
ENDBRANCH  19  20
BRANCH  19  23
HETATM   23  C15 UNL     1      20.352   1.915  49.074  1.00  0.00     0.216 C 
HETATM   24  C16 UNL     1      21.600   1.239  48.558  1.00  0.00     0.042 C 
HETATM   25  C17 UNL     1      19.810   2.811  48.040  1.00  0.00     0.042 C 
ENDBRANCH  19  23
ENDBRANCH  18  19
ENDBRANCH  17  18
ENDBRANCH   1  16
TORSDOF 6
ENDMDL
MODEL 3
REMARK VINA RESULT:      -6.6      6.282      8.610
REMARK  6 active torsions:
REMARK  status: ('A' for Active; 'I' for Inactive)
REMARK    1  A    between atoms: C2_2  and  N1_4 
REMARK    2  A    between atoms: N1_4  and  C4_5 
REMARK    3  A    between atoms: N1_4  and  C15_21 
REMARK    4  A    between atoms: C4_5  and  C5_6 
REMARK    5  A    between atoms: C6_7  and  C7_8 
REMARK       I    between atoms: C7_8  and  N2_10 
REMARK    6  A    between atoms: N2_10  and  C8_11 
ROOT
HETATM    1  C7  UNL     1      23.619   3.874  52.205  1.00  0.00     0.297 C 
HETATM    2  O1  UNL     1      22.525   3.260  52.326  1.00  0.00    -0.258 OA
HETATM    3  N2  UNL     1      24.847   3.254  52.523  1.00  0.00    -0.342 N 
HETATM    4  H10 UNL     1      25.770   3.768  52.419  1.00  0.00     0.164 HD
ENDROOT
BRANCH   3   5
HETATM    5  C8  UNL     1      25.115   1.938  53.004  1.00  0.00     0.117 A 
HETATM    6  C9  UNL     1      25.402   1.007  51.781  1.00  0.00     0.041 A 
HETATM    7  C10 UNL     1      26.666   0.712  52.233  1.00  0.00     0.024 A 
HETATM    8  C11 UNL     1      26.762  -0.713  52.800  1.00  0.00     0.014 C 
HETATM    9  C14 UNL     1      27.577   1.919  52.369  1.00  0.00    -0.006 A 
HETATM   10  P1  UNL     1      26.651   1.801  53.923  1.00  0.00    -0.073 P 
HETATM   11  C12 UNL     1      27.853  -0.734  53.557  1.00  0.00     0.047 C 
HETATM   12 CL1  UNL     1      29.212  -1.811  53.264  1.00  0.00    -0.086 Cl
HETATM   13  C13 UNL     1      27.333   0.346  54.547  1.00  0.00     0.237 C 
HETATM   14  F1  UNL     1      28.590   0.712  55.141  1.00  0.00    -0.239 F 
HETATM   15  H15 UNL     1      26.992   2.858  54.618  1.00  0.00     0.059 HD
ENDBRANCH   3   5
BRANCH   1  16
HETATM   16  C6  UNL     1      23.691   5.239  51.741  1.00  0.00    -0.004 C 
HETATM   17  C5  UNL     1      23.731   6.400  51.339  1.00  0.00    -0.066 C 
BRANCH  17  18
HETATM   18  C4  UNL     1      23.803   7.748  50.867  1.00  0.00     0.367 C 
BRANCH  18  19
HETATM   19  N1  UNL     1      23.401   7.832  49.445  1.00  0.00     0.107 N 
BRANCH  19  20
HETATM   20  C2  UNL     1      24.506   8.531  48.750  1.00  0.00     0.216 C 
HETATM   21  C1  UNL     1      25.115   7.539  47.792  1.00  0.00     0.042 C 
HETATM   22  C3  UNL     1      25.590   8.957  49.715  1.00  0.00     0.042 C 
ENDBRANCH  19  20
BRANCH  19  23
HETATM   23  C15 UNL     1      22.214   8.680  49.431  1.00  0.00     0.216 C 
HETATM   24  C16 UNL     1      21.006   7.788  49.271  1.00  0.00     0.042 C 
HETATM   25  C17 UNL     1      22.170   9.758  48.430  1.00  0.00     0.042 C 
ENDBRANCH  19  23
ENDBRANCH  18  19
ENDBRANCH  17  18
ENDBRANCH   1  16
TORSDOF 6
ENDMDL
MODEL 4
REMARK VINA RESULT:      -6.5      0.881      1.659
REMARK  6 active torsions:
REMARK  status: ('A' for Active; 'I' for Inactive)
REMARK    1  A    between atoms: C2_2  and  N1_4 
REMARK    2  A    between atoms: N1_4  and  C4_5 
REMARK    3  A    between atoms: N1_4  and  C15_21 
REMARK    4  A    between atoms: C4_5  and  C5_6 
REMARK    5  A    between atoms: C6_7  and  C7_8 
REMARK       I    between atoms: C7_8  and  N2_10 
REMARK    6  A    between atoms: N2_10  and  C8_11 
ROOT
HETATM    1  C7  UNL     1      28.107   5.941  48.269  1.00  0.00     0.297 C 
HETATM    2  O1  UNL     1      27.537   6.963  47.802  1.00  0.00    -0.258 OA
HETATM    3  N2  UNL     1      29.509   5.794  48.212  1.00  0.00    -0.342 N 
HETATM    4  H10 UNL     1      29.993   4.934  48.607  1.00  0.00     0.164 HD
ENDROOT
BRANCH   3   5
HETATM    5  C8  UNL     1      30.505   6.662  47.674  1.00  0.00     0.117 A 
HETATM    6  C9  UNL     1      30.917   7.694  48.775  1.00  0.00     0.041 A 
HETATM    7  C10 UNL     1      32.224   7.272  48.757  1.00  0.00     0.024 A 
HETATM    8  C11 UNL     1      33.152   8.283  48.064  1.00  0.00     0.014 C 
HETATM    9  C14 UNL     1      32.414   5.810  49.120  1.00  0.00    -0.006 A 
HETATM   10  P1  UNL     1      32.072   5.852  47.341  1.00  0.00    -0.073 P 
HETATM   11  C12 UNL     1      34.251   7.612  47.742  1.00  0.00     0.047 C 
HETATM   12 CL1  UNL     1      35.851   8.036  48.336  1.00  0.00    -0.086 Cl
HETATM   13  C13 UNL     1      33.515   6.621  46.796  1.00  0.00     0.237 C 
HETATM   14  F1  UNL     1      34.521   5.595  46.737  1.00  0.00    -0.239 F 
HETATM   15  H15 UNL     1      31.993   4.599  46.967  1.00  0.00     0.059 HD
ENDBRANCH   3   5
BRANCH   1  16
HETATM   16  C6  UNL     1      27.372   4.861  48.884  1.00  0.00    -0.004 C 
HETATM   17  C5  UNL     1      26.744   3.954  49.426  1.00  0.00    -0.066 C 
BRANCH  17  18
HETATM   18  C4  UNL     1      26.026   2.882  50.042  1.00  0.00     0.367 C 
BRANCH  18  19
HETATM   19  N1  UNL     1      24.719   3.348  50.558  1.00  0.00     0.107 N 
BRANCH  19  20
HETATM   20  C2  UNL     1      24.341   2.398  51.627  1.00  0.00     0.216 C 
HETATM   21  C1  UNL     1      24.164   3.207  52.888  1.00  0.00     0.042 C 
HETATM   22  C3  UNL     1      25.435   1.385  51.886  1.00  0.00     0.042 C 
ENDBRANCH  19  20
BRANCH  19  23
HETATM   23  C15 UNL     1      23.793   3.206  49.440  1.00  0.00     0.216 C 
HETATM   24  C16 UNL     1      23.202   4.564  49.148  1.00  0.00     0.042 C 
HETATM   25  C17 UNL     1      22.712   2.217  49.585  1.00  0.00     0.042 C 
ENDBRANCH  19  23
ENDBRANCH  18  19
ENDBRANCH  17  18
ENDBRANCH   1  16
TORSDOF 6
ENDMDL
MODEL 5
REMARK VINA RESULT:      -6.5      3.559      4.107
REMARK  6 active torsions:
REMARK  status: ('A' for Active; 'I' for Inactive)
REMARK    1  A    between atoms: C2_2  and  N1_4 
REMARK    2  A    between atoms: N1_4  and  C4_5 
REMARK    3  A    between atoms: N1_4  and  C15_21 
REMARK    4  A    between atoms: C4_5  and  C5_6 
REMARK    5  A    between atoms: C6_7  and  C7_8 
REMARK       I    between atoms: C7_8  and  N2_10 
REMARK    6  A    between atoms: N2_10  and  C8_11 
ROOT
HETATM    1  C7  UNL     1      27.907   5.274  48.579  1.00  0.00     0.297 C 
HETATM    2  O1  UNL     1      29.087   5.045  48.203  1.00  0.00    -0.258 OA
HETATM    3  N2  UNL     1      27.312   6.541  48.397  1.00  0.00    -0.342 N 
HETATM    4  H10 UNL     1      26.316   6.736  48.710  1.00  0.00     0.164 HD
ENDROOT
BRANCH   3   5
HETATM    5  C8  UNL     1      27.841   7.730  47.813  1.00  0.00     0.117 A 
HETATM    6  C9  UNL     1      26.680   8.766  47.648  1.00  0.00     0.041 A 
HETATM    7  C10 UNL     1      27.307   9.679  48.461  1.00  0.00     0.024 A 
HETATM    8  C11 UNL     1      27.899  10.854  47.665  1.00  0.00     0.014 C 
HETATM    9  C14 UNL     1      27.556   9.189  49.875  1.00  0.00    -0.006 A 
HETATM   10  P1  UNL     1      28.967   8.626  48.886  1.00  0.00    -0.073 P 
HETATM   11  C12 UNL     1      28.800  11.418  48.460  1.00  0.00     0.047 C 
HETATM   12 CL1  UNL     1      28.713  13.094  48.985  1.00  0.00    -0.086 Cl
HETATM   13  C13 UNL     1      29.696  10.150  48.545  1.00  0.00     0.237 C 
HETATM   14  F1  UNL     1      30.456  10.504  49.713  1.00  0.00    -0.239 F 
HETATM   15  H15 UNL     1      29.689   7.887  49.691  1.00  0.00     0.059 HD
ENDBRANCH   3   5
BRANCH   1  16
HETATM   16  C6  UNL     1      27.091   4.268  49.218  1.00  0.00    -0.004 C 
HETATM   17  C5  UNL     1      26.406   3.417  49.781  1.00  0.00    -0.066 C 
BRANCH  17  18
HETATM   18  C4  UNL     1      25.609   2.413  50.415  1.00  0.00     0.367 C 
BRANCH  18  19
HETATM   19  N1  UNL     1      25.285   2.797  51.808  1.00  0.00     0.107 N 
BRANCH  19  20
HETATM   20  C2  UNL     1      25.583   1.608  52.637  1.00  0.00     0.216 C 
HETATM   21  C1  UNL     1      26.407   2.086  53.806  1.00  0.00     0.042 C 
HETATM   22  C3  UNL     1      26.412   0.594  51.880  1.00  0.00     0.042 C 
ENDBRANCH  19  20
BRANCH  19  23
HETATM   23  C15 UNL     1      23.846   3.038  51.815  1.00  0.00     0.216 C 
HETATM   24  C16 UNL     1      23.587   4.286  52.624  1.00  0.00     0.042 C 
HETATM   25  C17 UNL     1      22.985   1.947  52.298  1.00  0.00     0.042 C 
ENDBRANCH  19  23
ENDBRANCH  18  19
ENDBRANCH  17  18
ENDBRANCH   1  16
TORSDOF 6
ENDMDL
MODEL 6
REMARK VINA RESULT:      -6.3      6.233      7.226
REMARK  6 active torsions:
REMARK  status: ('A' for Active; 'I' for Inactive)
REMARK    1  A    between atoms: C2_2  and  N1_4 
REMARK    2  A    between atoms: N1_4  and  C4_5 
REMARK    3  A    between atoms: N1_4  and  C15_21 
REMARK    4  A    between atoms: C4_5  and  C5_6 
REMARK    5  A    between atoms: C6_7  and  C7_8 
REMARK       I    between atoms: C7_8  and  N2_10 
REMARK    6  A    between atoms: N2_10  and  C8_11 
ROOT
HETATM    1  C7  UNL     1      23.558   4.105  52.245  1.00  0.00     0.297 C 
HETATM    2  O1  UNL     1      22.310   3.940  52.274  1.00  0.00    -0.258 OA
HETATM    3  N2  UNL     1      24.140   5.176  51.533  1.00  0.00    -0.342 N 
HETATM    4  H10 UNL     1      25.193   5.319  51.510  1.00  0.00     0.164 HD
ENDROOT
BRANCH   3   5
HETATM    5  C8  UNL     1      23.529   6.207  50.761  1.00  0.00     0.117 A 
HETATM    6  C9  UNL     1      24.487   7.443  50.726  1.00  0.00     0.041 A 
HETATM    7  C10 UNL     1      24.590   7.393  49.358  1.00  0.00     0.024 A 
HETATM    8  C11 UNL     1      23.801   8.523  48.676  1.00  0.00     0.014 C 
HETATM    9  C14 UNL     1      25.167   6.096  48.821  1.00  0.00    -0.006 A 
HETATM   10  P1  UNL     1      23.387   5.819  49.014  1.00  0.00    -0.073 P 
HETATM   11  C12 UNL     1      23.629   8.141  47.416  1.00  0.00     0.047 C 
HETATM   12 CL1  UNL     1      24.228   9.056  46.038  1.00  0.00    -0.086 Cl
HETATM   13  C13 UNL     1      22.803   6.876  47.785  1.00  0.00     0.237 C 
HETATM   14  F1  UNL     1      22.938   6.164  46.543  1.00  0.00    -0.239 F 
HETATM   15  H15 UNL     1      23.194   4.555  48.729  1.00  0.00     0.059 HD
ENDBRANCH   3   5
BRANCH   1  16
HETATM   16  C6  UNL     1      24.470   3.219  52.930  1.00  0.00    -0.004 C 
HETATM   17  C5  UNL     1      25.231   2.449  53.513  1.00  0.00    -0.066 C 
BRANCH  17  18
HETATM   18  C4  UNL     1      26.127   1.573  54.202  1.00  0.00     0.367 C 
BRANCH  18  19
HETATM   19  N1  UNL     1      26.895   0.744  53.244  1.00  0.00     0.107 N 
BRANCH  19  20
HETATM   20  C2  UNL     1      26.599  -0.662  53.597  1.00  0.00     0.216 C 
HETATM   21  C1  UNL     1      26.678  -1.458  52.318  1.00  0.00     0.042 C 
HETATM   22  C3  UNL     1      25.197  -0.817  54.144  1.00  0.00     0.042 C 
ENDBRANCH  19  20
BRANCH  19  23
HETATM   23  C15 UNL     1      28.297   1.026  53.532  1.00  0.00     0.216 C 
HETATM   24  C16 UNL     1      28.653   0.340  54.829  1.00  0.00     0.042 C 
HETATM   25  C17 UNL     1      28.699   2.441  53.593  1.00  0.00     0.042 C 
ENDBRANCH  19  23
ENDBRANCH  18  19
ENDBRANCH  17  18
ENDBRANCH   1  16
TORSDOF 6
ENDMDL
MODEL 7
REMARK VINA RESULT:      -6.2      1.984      2.359
REMARK  6 active torsions:
REMARK  status: ('A' for Active; 'I' for Inactive)
REMARK    1  A    between atoms: C2_2  and  N1_4 
REMARK    2  A    between atoms: N1_4  and  C4_5 
REMARK    3  A    between atoms: N1_4  and  C15_21 
REMARK    4  A    between atoms: C4_5  and  C5_6 
REMARK    5  A    between atoms: C6_7  and  C7_8 
REMARK       I    between atoms: C7_8  and  N2_10 
REMARK    6  A    between atoms: N2_10  and  C8_11 
ROOT
HETATM    1  C7  UNL     1      26.934   6.322  48.542  1.00  0.00     0.297 C 
HETATM    2  O1  UNL     1      26.034   6.865  47.848  1.00  0.00    -0.258 OA
HETATM    3  N2  UNL     1      28.196   6.932  48.712  1.00  0.00    -0.342 N 
HETATM    4  H10 UNL     1      28.956   6.478  49.299  1.00  0.00     0.164 HD
ENDROOT
BRANCH   3   5
HETATM    5  C8  UNL     1      28.700   8.164  48.197  1.00  0.00     0.117 A 
HETATM    6  C9  UNL     1      29.456   8.913  49.343  1.00  0.00     0.041 A 
HETATM    7  C10 UNL     1      30.638   8.903  48.642  1.00  0.00     0.024 A 
HETATM    8  C11 UNL     1      30.990  10.290  48.080  1.00  0.00     0.014 C 
HETATM    9  C14 UNL     1      31.155   7.516  48.309  1.00  0.00    -0.006 A 
HETATM   10  P1  UNL     1      30.005   7.963  46.981  1.00  0.00    -0.073 P 
HETATM   11  C12 UNL     1      31.876  10.080  47.114  1.00  0.00     0.047 C 
HETATM   12 CL1  UNL     1      33.500  10.755  47.129  1.00  0.00    -0.086 Cl
HETATM   13  C13 UNL     1      30.907   9.232  46.243  1.00  0.00     0.237 C 
HETATM   14  F1  UNL     1      31.881   8.597  45.398  1.00  0.00    -0.239 F 
HETATM   15  H15 UNL     1      29.912   6.900  46.222  1.00  0.00     0.059 HD
ENDBRANCH   3   5
BRANCH   1  16
HETATM   16  C6  UNL     1      26.741   5.053  49.202  1.00  0.00    -0.004 C 
HETATM   17  C5  UNL     1      26.561   3.981  49.776  1.00  0.00    -0.066 C 
BRANCH  17  18
HETATM   18  C4  UNL     1      26.376   2.728  50.439  1.00  0.00     0.367 C 
BRANCH  18  19
HETATM   19  N1  UNL     1      25.547   2.891  51.656  1.00  0.00     0.107 N 
BRANCH  19  20
HETATM   20  C2  UNL     1      25.637   1.606  52.385  1.00  0.00     0.216 C 
HETATM   21  C1  UNL     1      26.008   1.937  53.809  1.00  0.00     0.042 C 
HETATM   22  C3  UNL     1      26.729   0.722  51.824  1.00  0.00     0.042 C 
ENDBRANCH  19  20
BRANCH  19  23
HETATM   23  C15 UNL     1      24.184   3.072  51.170  1.00  0.00     0.216 C 
HETATM   24  C16 UNL     1      23.506   4.091  52.054  1.00  0.00     0.042 C 
HETATM   25  C17 UNL     1      23.343   1.869  51.065  1.00  0.00     0.042 C 
ENDBRANCH  19  23
ENDBRANCH  18  19
ENDBRANCH  17  18
ENDBRANCH   1  16
TORSDOF 6
ENDMDL
MODEL 8
REMARK VINA RESULT:      -6.1      5.322      9.207
REMARK  6 active torsions:
REMARK  status: ('A' for Active; 'I' for Inactive)
REMARK    1  A    between atoms: C2_2  and  N1_4 
REMARK    2  A    between atoms: N1_4  and  C4_5 
REMARK    3  A    between atoms: N1_4  and  C15_21 
REMARK    4  A    between atoms: C4_5  and  C5_6 
REMARK    5  A    between atoms: C6_7  and  C7_8 
REMARK       I    between atoms: C7_8  and  N2_10 
REMARK    6  A    between atoms: N2_10  and  C8_11 
ROOT
HETATM    1  C7  UNL     1      24.935   7.463  50.630  1.00  0.00     0.297 C 
HETATM    2  O1  UNL     1      23.920   8.160  50.895  1.00  0.00    -0.258 OA
HETATM    3  N2  UNL     1      24.928   6.062  50.803  1.00  0.00    -0.342 N 
HETATM    4  H10 UNL     1      25.782   5.471  50.577  1.00  0.00     0.164 HD
ENDROOT
BRANCH   3   5
HETATM    5  C8  UNL     1      23.893   5.198  51.269  1.00  0.00     0.117 A 
HETATM    6  C9  UNL     1      22.755   5.157  50.198  1.00  0.00     0.041 A 
HETATM    7  C10 UNL     1      22.895   3.802  50.022  1.00  0.00     0.024 A 
HETATM    8  C11 UNL     1      21.741   3.012  50.660  1.00  0.00     0.014 C 
HETATM    9  C14 UNL     1      24.268   3.374  49.539  1.00  0.00    -0.006 A 
HETATM   10  P1  UNL     1      24.371   3.470  51.346  1.00  0.00    -0.073 P 
HETATM   11  C12 UNL     1      22.180   1.766  50.795  1.00  0.00     0.047 C 
HETATM   12 CL1  UNL     1      21.408   0.381  50.034  1.00  0.00    -0.086 Cl
HETATM   13  C13 UNL     1      23.340   2.150  51.756  1.00  0.00     0.237 C 
HETATM   14  F1  UNL     1      24.134   0.960  51.618  1.00  0.00    -0.239 F 
HETATM   15  H15 UNL     1      25.627   3.242  51.641  1.00  0.00     0.059 HD
ENDBRANCH   3   5
BRANCH   1  16
HETATM   16  C6  UNL     1      26.163   8.043  50.138  1.00  0.00    -0.004 C 
HETATM   17  C5  UNL     1      27.213   8.516  49.709  1.00  0.00    -0.066 C 
BRANCH  17  18
HETATM   18  C4  UNL     1      28.435   9.084  49.231  1.00  0.00     0.367 C 
BRANCH  18  19
HETATM   19  N1  UNL     1      29.457   8.034  49.016  1.00  0.00     0.107 N 
BRANCH  19  20
HETATM   20  C2  UNL     1      30.718   8.750  48.719  1.00  0.00     0.216 C 
HETATM   21  C1  UNL     1      31.794   8.105  49.557  1.00  0.00     0.042 C 
HETATM   22  C3  UNL     1      30.641  10.207  49.120  1.00  0.00     0.042 C 
ENDBRANCH  19  20
BRANCH  19  23
HETATM   23  C15 UNL     1      29.022   7.314  47.825  1.00  0.00     0.216 C 
HETATM   24  C16 UNL     1      29.253   5.841  48.062  1.00  0.00     0.042 C 
HETATM   25  C17 UNL     1      29.626   7.710  46.542  1.00  0.00     0.042 C 
ENDBRANCH  19  23
ENDBRANCH  18  19
ENDBRANCH  17  18
ENDBRANCH   1  16
TORSDOF 6
ENDMDL
MODEL 9
REMARK VINA RESULT:      -6.1      3.407      4.104
REMARK  6 active torsions:
REMARK  status: ('A' for Active; 'I' for Inactive)
REMARK    1  A    between atoms: C2_2  and  N1_4 
REMARK    2  A    between atoms: N1_4  and  C4_5 
REMARK    3  A    between atoms: N1_4  and  C15_21 
REMARK    4  A    between atoms: C4_5  and  C5_6 
REMARK    5  A    between atoms: C6_7  and  C7_8 
REMARK       I    between atoms: C7_8  and  N2_10 
REMARK    6  A    between atoms: N2_10  and  C8_11 
ROOT
HETATM    1  C7  UNL     1      27.395   5.392  48.814  1.00  0.00     0.297 C 
HETATM    2  O1  UNL     1      28.185   4.487  48.436  1.00  0.00    -0.258 OA
HETATM    3  N2  UNL     1      27.782   6.750  48.817  1.00  0.00    -0.342 N 
HETATM    4  H10 UNL     1      27.117   7.515  49.133  1.00  0.00     0.164 HD
ENDROOT
BRANCH   3   5
HETATM    5  C8  UNL     1      29.018   7.355  48.441  1.00  0.00     0.117 A 
HETATM    6  C9  UNL     1      29.025   7.556  46.890  1.00  0.00     0.041 A 
HETATM    7  C10 UNL     1      29.160   8.918  47.014  1.00  0.00     0.024 A 
HETATM    8  C11 UNL     1      30.577   9.395  46.656  1.00  0.00     0.014 C 
HETATM    9  C14 UNL     1      28.024   9.593  47.760  1.00  0.00    -0.006 A 
HETATM   10  P1  UNL     1      29.206   9.043  49.020  1.00  0.00    -0.073 P 
HETATM   11  C12 UNL     1      30.705  10.601  47.196  1.00  0.00     0.047 C 
HETATM   12 CL1  UNL     1      31.038  12.051  46.257  1.00  0.00    -0.086 Cl
HETATM   13  C13 UNL     1      30.517  10.100  48.656  1.00  0.00     0.237 C 
HETATM   14  F1  UNL     1      30.204  11.360  49.274  1.00  0.00    -0.239 F 
HETATM   15  H15 UNL     1      28.643   9.312  50.172  1.00  0.00     0.059 HD
ENDBRANCH   3   5
BRANCH   1  16
HETATM   16  C6  UNL     1      26.053   5.107  49.267  1.00  0.00    -0.004 C 
HETATM   17  C5  UNL     1      24.907   4.855  49.632  1.00  0.00    -0.066 C 
BRANCH  17  18
HETATM   18  C4  UNL     1      23.575   4.582  50.074  1.00  0.00     0.367 C 
BRANCH  18  19
HETATM   19  N1  UNL     1      23.446   3.178  50.527  1.00  0.00     0.107 N 
BRANCH  19  20
HETATM   20  C2  UNL     1      22.306   2.610  49.773  1.00  0.00     0.216 C 
HETATM   21  C1  UNL     1      22.028   1.250  50.361  1.00  0.00     0.042 C 
HETATM   22  C3  UNL     1      22.646   2.414  48.312  1.00  0.00     0.042 C 
ENDBRANCH  19  20
BRANCH  19  23
HETATM   23  C15 UNL     1      23.092   3.262  51.940  1.00  0.00     0.216 C 
HETATM   24  C16 UNL     1      22.290   4.525  52.145  1.00  0.00     0.042 C 
HETATM   25  C17 UNL     1      24.196   3.212  52.913  1.00  0.00     0.042 C 
ENDBRANCH  19  23
ENDBRANCH  18  19
ENDBRANCH  17  18
ENDBRANCH   1  16
TORSDOF 6
ENDMDL
