MODEL 1
REMARK VINA RESULT:      -9.3      0.000      0.000
REMARK  6 active torsions:
REMARK  status: ('A' for Active; 'I' for Inactive)
REMARK    1  A    between atoms: C1_2  and  C2_3 
REMARK    2  A    between atoms: C1_2  and  C9_10 
REMARK    3  A    between atoms: C2_3  and  C3_4 
REMARK    4  A    between atoms: C12_13  and  N1_14 
REMARK    5  A    between atoms: N1_14  and  C13_15 
REMARK    6  A    between atoms: C22_27  and  O2_28 
ROOT
HETATM    1  C9  UNL     1      27.187   0.167  52.992  1.00  0.00     0.112 A 
HETATM    2  C10 UNL     1      26.954   0.622  51.617  1.00  0.00     0.004 C 
HETATM    3  C11 UNL     1      26.376   1.489  50.803  1.00  0.00     0.048 C 
HETATM    4  C12 UNL     1      25.520   2.607  51.213  1.00  0.00     0.129 C 
HETATM    5  N2  UNL     1      25.064   3.158  52.298  1.00  0.00    -0.225 NA
HETATM    6  C19 UNL     1      25.245   2.845  53.680  1.00  0.00     0.235 C 
HETATM    7  N3  UNL     1      26.108   2.087  54.300  1.00  0.00    -0.245 NA
HETATM    8  C20 UNL     1      27.207   1.257  53.999  1.00  0.00     0.057 A 
HETATM    9  C21 UNL     1      28.491   1.012  54.316  1.00  0.00     0.035 A 
HETATM   10  C22 UNL     1      28.612  -0.111  53.336  1.00  0.00     0.168 A 
ENDROOT
BRANCH   1  11
HETATM   11  C1  UNL     1      26.322  -1.000  53.405  1.00  0.00     0.152 C 
HETATM   12  O1  UNL     1      26.325  -2.150  52.977  1.00  0.00    -0.296 OA
BRANCH  11  13
HETATM   13  C2  UNL     1      25.372  -0.562  54.494  1.00  0.00     0.118 C 
BRANCH  13  14
HETATM   14  C3  UNL     1      23.968  -0.611  54.069  1.00  0.00    -0.051 A 
HETATM   15  C4  UNL     1      23.078  -1.217  54.964  1.00  0.00     0.007 A 
HETATM   16  C5  UNL     1      21.722  -1.345  54.720  1.00  0.00     0.001 A 
HETATM   17  C6  UNL     1      21.230  -0.857  53.548  1.00  0.00     0.000 A 
HETATM   18  C7  UNL     1      22.095  -0.255  52.654  1.00  0.00     0.001 A 
HETATM   19  C8  UNL     1      23.448  -0.131  52.905  1.00  0.00     0.007 A 
ENDBRANCH  13  14
ENDBRANCH  11  13
ENDBRANCH   1  11
BRANCH  10  20
HETATM   20  O2  UNL     1      28.820  -1.302  54.068  1.00  0.00    -0.390 OA
HETATM   21  H18 UNL     1      27.893  -1.623  54.297  1.00  0.00     0.210 HD
ENDBRANCH  10  20
BRANCH   4  22
HETATM   22  N1  UNL     1      25.025   3.336  50.102  1.00  0.00    -0.341 N 
HETATM   23  H10 UNL     1      24.084   3.006  49.729  1.00  0.00     0.167 HD
BRANCH  22  24
HETATM   24  C13 UNL     1      25.668   4.420  49.470  1.00  0.00     0.034 A 
HETATM   25  C14 UNL     1      24.871   5.512  49.092  1.00  0.00     0.029 A 
HETATM   26  C15 UNL     1      25.338   6.643  48.462  1.00  0.00     0.004 A 
HETATM   27  C16 UNL     1      26.683   6.727  48.171  1.00  0.00     0.019 A 
HETATM   28  C17 UNL     1      27.514   5.687  48.517  1.00  0.00     0.013 A 
HETATM   29 BR1  UNL     1      29.371   5.769  48.133  1.00  0.00    -0.051 Br
HETATM   30  C18 UNL     1      26.967   4.601  49.143  1.00  0.00     0.048 A 
ENDBRANCH  22  24
ENDBRANCH   4  22
TORSDOF 6
ENDMDL
MODEL 2
REMARK VINA RESULT:      -9.2      3.513      6.007
REMARK  6 active torsions:
REMARK  status: ('A' for Active; 'I' for Inactive)
REMARK    1  A    between atoms: C1_2  and  C2_3 
REMARK    2  A    between atoms: C1_2  and  C9_10 
REMARK    3  A    between atoms: C2_3  and  C3_4 
REMARK    4  A    between atoms: C12_13  and  N1_14 
REMARK    5  A    between atoms: N1_14  and  C13_15 
REMARK    6  A    between atoms: C22_27  and  O2_28 
ROOT
HETATM    1  C9  UNL     1      21.606   3.157  51.582  1.00  0.00     0.112 A 
HETATM    2  C10 UNL     1      22.824   3.136  52.399  1.00  0.00     0.004 C 
HETATM    3  C11 UNL     1      24.146   3.131  52.445  1.00  0.00     0.048 C 
HETATM    4  C12 UNL     1      25.042   3.150  51.286  1.00  0.00     0.129 C 
HETATM    5  N2  UNL     1      24.982   3.201  49.988  1.00  0.00    -0.225 NA
HETATM    6  C19 UNL     1      23.879   3.264  49.083  1.00  0.00     0.235 C 
HETATM    7  N3  UNL     1      22.617   3.547  49.259  1.00  0.00    -0.245 NA
HETATM    8  C20 UNL     1      21.741   3.903  50.305  1.00  0.00     0.057 A 
HETATM    9  C21 UNL     1      20.813   4.805  50.675  1.00  0.00     0.035 A 
HETATM   10  C22 UNL     1      20.577   4.153  51.999  1.00  0.00     0.168 A 
ENDROOT
BRANCH   1  11
HETATM   11  C1  UNL     1      20.966   1.800  51.404  1.00  0.00     0.152 C 
HETATM   12  O1  UNL     1      19.777   1.521  51.278  1.00  0.00    -0.296 OA
BRANCH  11  13
HETATM   13  C2  UNL     1      22.035   0.735  51.395  1.00  0.00     0.118 C 
BRANCH  13  14
HETATM   14  C3  UNL     1      22.123   0.016  52.672  1.00  0.00    -0.051 A 
HETATM   15  C4  UNL     1      23.416  -0.223  53.153  1.00  0.00     0.007 A 
HETATM   16  C5  UNL     1      23.676  -0.886  54.339  1.00  0.00     0.001 A 
HETATM   17  C6  UNL     1      22.620  -1.328  55.075  1.00  0.00     0.000 A 
HETATM   18  C7  UNL     1      21.338  -1.100  54.615  1.00  0.00     0.001 A 
HETATM   19  C8  UNL     1      21.085  -0.438  53.429  1.00  0.00     0.007 A 
ENDBRANCH  13  14
ENDBRANCH  11  13
ENDBRANCH   1  11
BRANCH  10  20
HETATM   20  O2  UNL     1      19.252   3.662  52.009  1.00  0.00    -0.390 OA
HETATM   21  H18 UNL     1      19.081   3.417  52.971  1.00  0.00     0.210 HD
ENDBRANCH  10  20
BRANCH   4  22
HETATM   22  N1  UNL     1      26.408   3.105  51.666  1.00  0.00    -0.341 N 
HETATM   23  H10 UNL     1      26.970   3.980  51.435  1.00  0.00     0.167 HD
BRANCH  22  24
HETATM   24  C13 UNL     1      27.057   2.022  52.294  1.00  0.00     0.034 A 
HETATM   25  C14 UNL     1      28.102   2.323  53.182  1.00  0.00     0.029 A 
HETATM   26  C15 UNL     1      28.841   1.388  53.870  1.00  0.00     0.004 A 
HETATM   27  C16 UNL     1      28.549   0.054  53.686  1.00  0.00     0.019 A 
HETATM   28  C17 UNL     1      27.535  -0.303  52.828  1.00  0.00     0.013 A 
HETATM   29 BR1  UNL     1      27.105  -2.131  52.552  1.00  0.00    -0.051 Br
HETATM   30  C18 UNL     1      26.850   0.691  52.185  1.00  0.00     0.048 A 
ENDBRANCH  22  24
ENDBRANCH   4  22
TORSDOF 6
ENDMDL
MODEL 3
REMARK VINA RESULT:      -9.1      2.407      4.784
REMARK  6 active torsions:
REMARK  status: ('A' for Active; 'I' for Inactive)
REMARK    1  A    between atoms: C1_2  and  C2_3 
REMARK    2  A    between atoms: C1_2  and  C9_10 
REMARK    3  A    between atoms: C2_3  and  C3_4 
REMARK    4  A    between atoms: C12_13  and  N1_14 
REMARK    5  A    between atoms: N1_14  and  C13_15 
REMARK    6  A    between atoms: C22_27  and  O2_28 
ROOT
HETATM    1  C9  UNL     1      21.566   0.755  52.827  1.00  0.00     0.112 A 
HETATM    2  C10 UNL     1      22.131   2.106  52.748  1.00  0.00     0.004 C 
HETATM    3  C11 UNL     1      22.564   3.100  51.992  1.00  0.00     0.048 C 
HETATM    4  C12 UNL     1      22.603   3.105  50.527  1.00  0.00     0.129 C 
HETATM    5  N2  UNL     1      22.283   2.341  49.525  1.00  0.00    -0.225 NA
HETATM    6  C19 UNL     1      21.697   1.040  49.463  1.00  0.00     0.235 C 
HETATM    7  N3  UNL     1      21.069   0.320  50.352  1.00  0.00    -0.245 NA
HETATM    8  C20 UNL     1      20.665   0.404  51.699  1.00  0.00     0.057 A 
HETATM    9  C21 UNL     1      19.607   0.269  52.519  1.00  0.00     0.035 A 
HETATM   10  C22 UNL     1      20.397   0.607  53.742  1.00  0.00     0.168 A 
ENDROOT
BRANCH   1  11
HETATM   11  C1  UNL     1      22.586  -0.319  53.120  1.00  0.00     0.152 C 
HETATM   12  O1  UNL     1      22.639  -1.468  52.691  1.00  0.00    -0.296 OA
BRANCH  11  13
HETATM   13  C2  UNL     1      23.623   0.217  54.077  1.00  0.00     0.118 C 
BRANCH  13  14
HETATM   14  C3  UNL     1      24.973   0.215  53.503  1.00  0.00    -0.051 A 
HETATM   15  C4  UNL     1      26.004  -0.189  54.361  1.00  0.00     0.007 A 
HETATM   16  C5  UNL     1      27.332  -0.249  53.980  1.00  0.00     0.001 A 
HETATM   17  C6  UNL     1      27.653   0.104  52.704  1.00  0.00     0.000 A 
HETATM   18  C7  UNL     1      26.648   0.505  51.845  1.00  0.00     0.001 A 
HETATM   19  C8  UNL     1      25.323   0.563  52.233  1.00  0.00     0.007 A 
ENDBRANCH  13  14
ENDBRANCH  11  13
ENDBRANCH   1  11
BRANCH  10  20
HETATM   20  O2  UNL     1      20.434  -0.542  54.565  1.00  0.00    -0.390 OA
HETATM   21  H18 UNL     1      19.945  -0.268  55.402  1.00  0.00     0.210 HD
ENDBRANCH  10  20
BRANCH   4  22
HETATM   22  N1  UNL     1      23.153   4.307  50.011  1.00  0.00    -0.341 N 
HETATM   23  H10 UNL     1      22.464   5.114  49.916  1.00  0.00     0.167 HD
BRANCH  22  24
HETATM   24  C13 UNL     1      24.493   4.503  49.618  1.00  0.00     0.034 A 
HETATM   25  C14 UNL     1      25.381   3.430  49.794  1.00  0.00     0.029 A 
HETATM   26  C15 UNL     1      26.718   3.458  49.471  1.00  0.00     0.004 A 
HETATM   27  C16 UNL     1      27.242   4.614  48.934  1.00  0.00     0.019 A 
HETATM   28  C17 UNL     1      26.420   5.699  48.737  1.00  0.00     0.013 A 
HETATM   29 BR1  UNL     1      27.107   7.307  47.999  1.00  0.00    -0.051 Br
HETATM   30  C18 UNL     1      25.103   5.585  49.086  1.00  0.00     0.048 A 
ENDBRANCH  22  24
ENDBRANCH   4  22
TORSDOF 6
ENDMDL
MODEL 4
REMARK VINA RESULT:      -9.0      4.668      7.083
REMARK  6 active torsions:
REMARK  status: ('A' for Active; 'I' for Inactive)
REMARK    1  A    between atoms: C1_2  and  C2_3 
REMARK    2  A    between atoms: C1_2  and  C9_10 
REMARK    3  A    between atoms: C2_3  and  C3_4 
REMARK    4  A    between atoms: C12_13  and  N1_14 
REMARK    5  A    between atoms: N1_14  and  C13_15 
REMARK    6  A    between atoms: C22_27  and  O2_28 
ROOT
HETATM    1  C9  UNL     1      23.640   3.115  50.824  1.00  0.00     0.112 A 
HETATM    2  C10 UNL     1      22.904   2.127  50.027  1.00  0.00     0.004 C 
HETATM    3  C11 UNL     1      21.738   1.657  49.620  1.00  0.00     0.048 C 
HETATM    4  C12 UNL     1      20.424   2.189  49.993  1.00  0.00     0.129 C 
HETATM    5  N2  UNL     1      19.909   3.153  50.697  1.00  0.00    -0.225 NA
HETATM    6  C19 UNL     1      20.505   4.193  51.476  1.00  0.00     0.235 C 
HETATM    7  N3  UNL     1      21.721   4.662  51.525  1.00  0.00    -0.245 NA
HETATM    8  C20 UNL     1      22.974   4.439  50.919  1.00  0.00     0.057 A 
HETATM    9  C21 UNL     1      23.989   5.053  50.283  1.00  0.00     0.035 A 
HETATM   10  C22 UNL     1      24.769   3.789  50.117  1.00  0.00     0.168 A 
ENDROOT
BRANCH   1  11
HETATM   11  C1  UNL     1      24.109   2.596  52.162  1.00  0.00     0.152 C 
HETATM   12  O1  UNL     1      24.451   3.229  53.156  1.00  0.00    -0.296 OA
BRANCH  11  13
HETATM   13  C2  UNL     1      24.113   1.086  52.145  1.00  0.00     0.118 C 
BRANCH  13  14
HETATM   14  C3  UNL     1      23.126   0.511  53.066  1.00  0.00    -0.051 A 
HETATM   15  C4  UNL     1      23.581  -0.541  53.871  1.00  0.00     0.007 A 
HETATM   16  C5  UNL     1      22.782  -1.194  54.793  1.00  0.00     0.001 A 
HETATM   17  C6  UNL     1      21.488  -0.792  54.922  1.00  0.00     0.000 A 
HETATM   18  C7  UNL     1      21.024   0.245  54.136  1.00  0.00     0.001 A 
HETATM   19  C8  UNL     1      21.827   0.892  53.217  1.00  0.00     0.007 A 
ENDBRANCH  13  14
ENDBRANCH  11  13
ENDBRANCH   1  11
BRANCH  10  20
HETATM   20  O2  UNL     1      25.953   3.908  50.878  1.00  0.00    -0.390 OA
HETATM   21  H18 UNL     1      25.718   4.558  51.611  1.00  0.00     0.210 HD
ENDBRANCH  10  20
BRANCH   4  22
HETATM   22  N1  UNL     1      19.363   1.444  49.417  1.00  0.00    -0.341 N 
HETATM   23  H10 UNL     1      19.315   1.475  48.354  1.00  0.00     0.167 HD
BRANCH  22  24
HETATM   24  C13 UNL     1      18.394   0.702  50.124  1.00  0.00     0.034 A 
HETATM   25  C14 UNL     1      17.076   0.737  49.642  1.00  0.00     0.029 A 
HETATM   26  C15 UNL     1      16.014   0.077  50.216  1.00  0.00     0.004 A 
HETATM   27  C16 UNL     1      16.240  -0.678  51.346  1.00  0.00     0.019 A 
HETATM   28  C17 UNL     1      17.512  -0.751  51.865  1.00  0.00     0.013 A 
HETATM   29 BR1  UNL     1      17.861  -1.782  53.420  1.00  0.00    -0.051 Br
HETATM   30  C18 UNL     1      18.511  -0.064  51.231  1.00  0.00     0.048 A 
ENDBRANCH  22  24
ENDBRANCH   4  22
TORSDOF 6
ENDMDL
MODEL 5
REMARK VINA RESULT:      -8.5      3.073      5.287
REMARK  6 active torsions:
REMARK  status: ('A' for Active; 'I' for Inactive)
REMARK    1  A    between atoms: C1_2  and  C2_3 
REMARK    2  A    between atoms: C1_2  and  C9_10 
REMARK    3  A    between atoms: C2_3  and  C3_4 
REMARK    4  A    between atoms: C12_13  and  N1_14 
REMARK    5  A    between atoms: N1_14  and  C13_15 
REMARK    6  A    between atoms: C22_27  and  O2_28 
ROOT
HETATM    1  C9  UNL     1      21.801   3.570  51.502  1.00  0.00     0.112 A 
HETATM    2  C10 UNL     1      22.779   4.657  51.619  1.00  0.00     0.004 C 
HETATM    3  C11 UNL     1      23.587   5.512  51.014  1.00  0.00     0.048 C 
HETATM    4  C12 UNL     1      23.779   5.628  49.566  1.00  0.00     0.129 C 
HETATM    5  N2  UNL     1      23.335   5.102  48.462  1.00  0.00    -0.225 NA
HETATM    6  C19 UNL     1      22.369   4.080  48.210  1.00  0.00     0.235 C 
HETATM    7  N3  UNL     1      21.453   3.537  48.963  1.00  0.00    -0.245 NA
HETATM    8  C20 UNL     1      20.959   3.636  50.280  1.00  0.00     0.057 A 
HETATM    9  C21 UNL     1      19.835   3.791  51.002  1.00  0.00     0.035 A 
HETATM   10  C22 UNL     1      20.558   3.743  52.309  1.00  0.00     0.168 A 
ENDROOT
BRANCH   1  11
HETATM   11  C1  UNL     1      22.383   2.197  51.740  1.00  0.00     0.152 C 
HETATM   12  O1  UNL     1      22.130   1.143  51.163  1.00  0.00    -0.296 OA
BRANCH  11  13
HETATM   13  C2  UNL     1      23.394   2.264  52.860  1.00  0.00     0.118 C 
BRANCH  13  14
HETATM   14  C3  UNL     1      24.612   1.501  52.564  1.00  0.00    -0.051 A 
HETATM   15  C4  UNL     1      24.773   0.304  53.274  1.00  0.00     0.007 A 
HETATM   16  C5  UNL     1      25.862  -0.534  53.115  1.00  0.00     0.001 A 
HETATM   17  C6  UNL     1      26.826  -0.176  52.223  1.00  0.00     0.000 A 
HETATM   18  C7  UNL     1      26.681   1.001  51.514  1.00  0.00     0.001 A 
HETATM   19  C8  UNL     1      25.591   1.834  51.678  1.00  0.00     0.007 A 
ENDBRANCH  13  14
ENDBRANCH  11  13
ENDBRANCH   1  11
BRANCH  10  20
HETATM   20  O2  UNL     1      20.135   2.581  52.994  1.00  0.00    -0.390 OA
HETATM   21  H18 UNL     1      20.930   1.963  52.958  1.00  0.00     0.210 HD
ENDBRANCH  10  20
BRANCH   4  22
HETATM   22  N1  UNL     1      24.739   6.617  49.232  1.00  0.00    -0.341 N 
HETATM   23  H10 UNL     1      24.390   7.622  49.289  1.00  0.00     0.167 HD
BRANCH  22  24
HETATM   24  C13 UNL     1      26.070   6.378  48.832  1.00  0.00     0.034 A 
HETATM   25  C14 UNL     1      26.572   5.078  49.002  1.00  0.00     0.029 A 
HETATM   26  C15 UNL     1      27.847   4.680  48.672  1.00  0.00     0.004 A 
HETATM   27  C16 UNL     1      28.709   5.611  48.136  1.00  0.00     0.019 A 
HETATM   28  C17 UNL     1      28.274   6.902  47.945  1.00  0.00     0.013 A 
HETATM   29 BR1  UNL     1      29.434   8.211  47.207  1.00  0.00    -0.051 Br
HETATM   30  C18 UNL     1      26.990   7.212  48.300  1.00  0.00     0.048 A 
ENDBRANCH  22  24
ENDBRANCH   4  22
TORSDOF 6
ENDMDL
MODEL 6
REMARK VINA RESULT:      -8.3      4.267      7.652
REMARK  6 active torsions:
REMARK  status: ('A' for Active; 'I' for Inactive)
REMARK    1  A    between atoms: C1_2  and  C2_3 
REMARK    2  A    between atoms: C1_2  and  C9_10 
REMARK    3  A    between atoms: C2_3  and  C3_4 
REMARK    4  A    between atoms: C12_13  and  N1_14 
REMARK    5  A    between atoms: N1_14  and  C13_15 
REMARK    6  A    between atoms: C22_27  and  O2_28 
ROOT
HETATM    1  C9  UNL     1      23.442   5.039  48.990  1.00  0.00     0.112 A 
HETATM    2  C10 UNL     1      22.948   3.709  48.615  1.00  0.00     0.004 C 
HETATM    3  C11 UNL     1      22.136   2.699  48.874  1.00  0.00     0.048 C 
HETATM    4  C12 UNL     1      21.193   2.625  49.994  1.00  0.00     0.129 C 
HETATM    5  N2  UNL     1      20.786   3.347  50.996  1.00  0.00    -0.225 NA
HETATM    6  C19 UNL     1      21.149   4.654  51.443  1.00  0.00     0.235 C 
HETATM    7  N3  UNL     1      21.797   5.629  50.864  1.00  0.00    -0.245 NA
HETATM    8  C20 UNL     1      22.424   5.908  49.633  1.00  0.00     0.057 A 
HETATM    9  C21 UNL     1      22.482   6.805  48.632  1.00  0.00     0.035 A 
HETATM   10  C22 UNL     1      23.511   6.028  47.875  1.00  0.00     0.168 A 
ENDROOT
BRANCH   1  11
HETATM   11  C1  UNL     1      24.753   5.016  49.740  1.00  0.00     0.152 C 
HETATM   12  O1  UNL     1      25.303   5.924  50.354  1.00  0.00    -0.296 OA
BRANCH  11  13
HETATM   13  C2  UNL     1      25.365   3.639  49.644  1.00  0.00     0.118 C 
BRANCH  13  14
HETATM   14  C3  UNL     1      25.604   3.038  50.961  1.00  0.00    -0.051 A 
HETATM   15  C4  UNL     1      24.510   3.021  51.835  1.00  0.00     0.007 A 
HETATM   16  C5  UNL     1      24.564   2.491  53.112  1.00  0.00     0.001 A 
HETATM   17  C6  UNL     1      25.742   1.960  53.540  1.00  0.00     0.000 A 
HETATM   18  C7  UNL     1      26.831   1.969  52.689  1.00  0.00     0.001 A 
HETATM   19  C8  UNL     1      26.770   2.500  51.416  1.00  0.00     0.007 A 
ENDBRANCH  13  14
ENDBRANCH  11  13
ENDBRANCH   1  11
BRANCH  10  20
HETATM   20  O2  UNL     1      24.697   6.798  47.844  1.00  0.00    -0.390 OA
HETATM   21  H18 UNL     1      24.513   7.517  47.162  1.00  0.00     0.210 HD
ENDBRANCH  10  20
BRANCH   4  22
HETATM   22  N1  UNL     1      20.486   1.395  50.017  1.00  0.00    -0.341 N 
HETATM   23  H10 UNL     1      20.178   1.034  49.064  1.00  0.00     0.167 HD
BRANCH  22  24
HETATM   24  C13 UNL     1      20.163   0.648  51.169  1.00  0.00     0.034 A 
HETATM   25  C14 UNL     1      18.836   0.209  51.302  1.00  0.00     0.029 A 
HETATM   26  C15 UNL     1      18.355  -0.523  52.364  1.00  0.00     0.004 A 
HETATM   27  C16 UNL     1      19.223  -0.857  53.380  1.00  0.00     0.019 A 
HETATM   28  C17 UNL     1      20.535  -0.454  53.306  1.00  0.00     0.013 A 
HETATM   29 BR1  UNL     1      21.759  -0.897  54.688  1.00  0.00    -0.051 Br
HETATM   30  C18 UNL     1      20.931   0.269  52.214  1.00  0.00     0.048 A 
ENDBRANCH  22  24
ENDBRANCH   4  22
TORSDOF 6
ENDMDL
MODEL 7
REMARK VINA RESULT:      -8.1      3.853      5.747
REMARK  6 active torsions:
REMARK  status: ('A' for Active; 'I' for Inactive)
REMARK    1  A    between atoms: C1_2  and  C2_3 
REMARK    2  A    between atoms: C1_2  and  C9_10 
REMARK    3  A    between atoms: C2_3  and  C3_4 
REMARK    4  A    between atoms: C12_13  and  N1_14 
REMARK    5  A    between atoms: N1_14  and  C13_15 
REMARK    6  A    between atoms: C22_27  and  O2_28 
ROOT
HETATM    1  C9  UNL     1      20.339   3.368  50.823  1.00  0.00     0.112 A 
HETATM    2  C10 UNL     1      21.654   3.863  51.247  1.00  0.00     0.004 C 
HETATM    3  C11 UNL     1      22.956   3.921  51.027  1.00  0.00     0.048 C 
HETATM    4  C12 UNL     1      23.666   3.280  49.916  1.00  0.00     0.129 C 
HETATM    5  N2  UNL     1      23.413   2.558  48.865  1.00  0.00    -0.225 NA
HETATM    6  C19 UNL     1      22.193   2.049  48.324  1.00  0.00     0.235 C 
HETATM    7  N3  UNL     1      20.943   2.348  48.551  1.00  0.00    -0.245 NA
HETATM    8  C20 UNL     1      20.186   3.226  49.353  1.00  0.00     0.057 A 
HETATM    9  C21 UNL     1      19.207   4.148  49.314  1.00  0.00     0.035 A 
HETATM   10  C22 UNL     1      19.255   4.392  50.788  1.00  0.00     0.168 A 
ENDROOT
BRANCH   1  11
HETATM   11  C1  UNL     1      19.871   2.149  51.582  1.00  0.00     0.152 C 
HETATM   12  O1  UNL     1      19.144   1.237  51.200  1.00  0.00    -0.296 OA
BRANCH  11  13
HETATM   13  C2  UNL     1      20.442   2.174  52.980  1.00  0.00     0.118 C 
BRANCH  13  14
HETATM   14  C3  UNL     1      21.229   0.975  53.288  1.00  0.00    -0.051 A 
HETATM   15  C4  UNL     1      20.642   0.069  54.181  1.00  0.00     0.007 A 
HETATM   16  C5  UNL     1      21.247  -1.110  54.577  1.00  0.00     0.001 A 
HETATM   17  C6  UNL     1      22.477  -1.403  54.072  1.00  0.00     0.000 A 
HETATM   18  C7  UNL     1      23.069  -0.521  53.190  1.00  0.00     0.001 A 
HETATM   19  C8  UNL     1      22.459   0.655  52.799  1.00  0.00     0.007 A 
ENDBRANCH  13  14
ENDBRANCH  11  13
ENDBRANCH   1  11
BRANCH  10  20
HETATM   20  O2  UNL     1      18.024   3.966  51.337  1.00  0.00    -0.390 OA
HETATM   21  H18 UNL     1      17.923   3.015  51.020  1.00  0.00     0.210 HD
ENDBRANCH  10  20
BRANCH   4  22
HETATM   22  N1  UNL     1      25.065   3.503  49.976  1.00  0.00    -0.341 N 
HETATM   23  H10 UNL     1      25.610   2.799  50.560  1.00  0.00     0.167 HD
BRANCH  22  24
HETATM   24  C13 UNL     1      25.763   4.557  49.351  1.00  0.00     0.034 A 
HETATM   25  C14 UNL     1      27.128   4.360  49.087  1.00  0.00     0.029 A 
HETATM   26  C15 UNL     1      27.953   5.287  48.491  1.00  0.00     0.004 A 
HETATM   27  C16 UNL     1      27.419   6.502  48.121  1.00  0.00     0.019 A 
HETATM   28  C17 UNL     1      26.087   6.753  48.355  1.00  0.00     0.013 A 
HETATM   29 BR1  UNL     1      25.317   8.415  47.857  1.00  0.00    -0.051 Br
HETATM   30  C18 UNL     1      25.338   5.776  48.951  1.00  0.00     0.048 A 
ENDBRANCH  22  24
ENDBRANCH   4  22
TORSDOF 6
ENDMDL
MODEL 8
REMARK VINA RESULT:      -8.1      5.395      9.598
REMARK  6 active torsions:
REMARK  status: ('A' for Active; 'I' for Inactive)
REMARK    1  A    between atoms: C1_2  and  C2_3 
REMARK    2  A    between atoms: C1_2  and  C9_10 
REMARK    3  A    between atoms: C2_3  and  C3_4 
REMARK    4  A    between atoms: C12_13  and  N1_14 
REMARK    5  A    between atoms: N1_14  and  C13_15 
REMARK    6  A    between atoms: C22_27  and  O2_28 
ROOT
HETATM    1  C9  UNL     1      30.588   7.830  47.960  1.00  0.00     0.112 A 
HETATM    2  C10 UNL     1      29.548   6.841  47.657  1.00  0.00     0.004 C 
HETATM    3  C11 UNL     1      28.304   6.429  47.833  1.00  0.00     0.048 C 
HETATM    4  C12 UNL     1      27.295   7.087  48.669  1.00  0.00     0.129 C 
HETATM    5  N2  UNL     1      27.165   8.141  49.420  1.00  0.00    -0.225 NA
HETATM    6  C19 UNL     1      28.072   9.191  49.760  1.00  0.00     0.235 C 
HETATM    7  N3  UNL     1      29.209   9.569  49.241  1.00  0.00    -0.245 NA
HETATM    8  C20 UNL     1      30.073   9.204  48.189  1.00  0.00     0.057 A 
HETATM    9  C21 UNL     1      30.738   9.687  47.123  1.00  0.00     0.035 A 
HETATM   10  C22 UNL     1      31.327   8.358  46.776  1.00  0.00     0.168 A 
ENDROOT
BRANCH   1  11
HETATM   11  C1  UNL     1      31.566   7.385  49.020  1.00  0.00     0.152 C 
HETATM   12  O1  UNL     1      32.327   8.067  49.700  1.00  0.00    -0.296 OA
BRANCH  11  13
HETATM   13  C2  UNL     1      31.503   5.884  49.168  1.00  0.00     0.118 C 
BRANCH  13  14
HETATM   14  C3  UNL     1      32.503   5.195  48.344  1.00  0.00    -0.051 A 
HETATM   15  C4  UNL     1      32.004   4.255  47.434  1.00  0.00     0.007 A 
HETATM   16  C5  UNL     1      32.809   3.519  46.583  1.00  0.00     0.001 A 
HETATM   17  C6  UNL     1      34.154   3.720  46.634  1.00  0.00     0.000 A 
HETATM   18  C7  UNL     1      34.662   4.644  47.526  1.00  0.00     0.001 A 
HETATM   19  C8  UNL     1      33.853   5.376  48.373  1.00  0.00     0.007 A 
ENDBRANCH  13  14
ENDBRANCH  11  13
ENDBRANCH   1  11
BRANCH  10  20
HETATM   20  O2  UNL     1      32.727   8.447  46.948  1.00  0.00    -0.390 OA
HETATM   21  H18 UNL     1      32.846   9.077  47.726  1.00  0.00     0.210 HD
ENDBRANCH  10  20
BRANCH   4  22
HETATM   22  N1  UNL     1      26.065   6.382  48.677  1.00  0.00    -0.341 N 
HETATM   23  H10 UNL     1      25.323   6.760  48.014  1.00  0.00     0.167 HD
BRANCH  22  24
HETATM   24  C13 UNL     1      25.758   5.262  49.478  1.00  0.00     0.034 A 
HETATM   25  C14 UNL     1      26.597   4.142  49.371  1.00  0.00     0.029 A 
HETATM   26  C15 UNL     1      26.435   2.970  50.074  1.00  0.00     0.004 A 
HETATM   27  C16 UNL     1      25.377   2.870  50.950  1.00  0.00     0.019 A 
HETATM   28  C17 UNL     1      24.520   3.935  51.098  1.00  0.00     0.013 A 
HETATM   29 BR1  UNL     1      23.052   3.832  52.297  1.00  0.00    -0.051 Br
HETATM   30  C18 UNL     1      24.755   5.063  50.361  1.00  0.00     0.048 A 
ENDBRANCH  22  24
ENDBRANCH   4  22
TORSDOF 6
ENDMDL
MODEL 9
REMARK VINA RESULT:      -8.0      4.976      7.622
REMARK  6 active torsions:
REMARK  status: ('A' for Active; 'I' for Inactive)
REMARK    1  A    between atoms: C1_2  and  C2_3 
REMARK    2  A    between atoms: C1_2  and  C9_10 
REMARK    3  A    between atoms: C2_3  and  C3_4 
REMARK    4  A    between atoms: C12_13  and  N1_14 
REMARK    5  A    between atoms: N1_14  and  C13_15 
REMARK    6  A    between atoms: C22_27  and  O2_28 
ROOT
HETATM    1  C9  UNL     1      19.748   3.854  50.431  1.00  0.00     0.112 A 
HETATM    2  C10 UNL     1      20.979   3.991  51.218  1.00  0.00     0.004 C 
HETATM    3  C11 UNL     1      22.207   3.570  51.464  1.00  0.00     0.048 C 
HETATM    4  C12 UNL     1      22.890   2.473  50.772  1.00  0.00     0.129 C 
HETATM    5  N2  UNL     1      22.679   1.627  49.807  1.00  0.00    -0.225 NA
HETATM    6  C19 UNL     1      21.559   1.417  48.946  1.00  0.00     0.235 C 
HETATM    7  N3  UNL     1      20.513   2.150  48.677  1.00  0.00    -0.245 NA
HETATM    8  C20 UNL     1      19.966   3.399  49.034  1.00  0.00     0.057 A 
HETATM    9  C21 UNL     1      19.473   4.545  48.529  1.00  0.00     0.035 A 
HETATM   10  C22 UNL     1      19.202   5.128  49.879  1.00  0.00     0.168 A 
ENDROOT
BRANCH   1  11
HETATM   11  C1  UNL     1      18.654   3.087  51.135  1.00  0.00     0.152 C 
HETATM   12  O1  UNL     1      17.921   3.456  52.047  1.00  0.00    -0.296 OA
BRANCH  11  13
HETATM   13  C2  UNL     1      18.550   1.701  50.545  1.00  0.00     0.118 C 
BRANCH  13  14
HETATM   14  C3  UNL     1      18.661   0.648  51.562  1.00  0.00    -0.051 A 
HETATM   15  C4  UNL     1      19.873   0.599  52.262  1.00  0.00     0.007 A 
HETATM   16  C5  UNL     1      20.142  -0.330  53.252  1.00  0.00     0.001 A 
HETATM   17  C6  UNL     1      19.178  -1.241  53.559  1.00  0.00     0.000 A 
HETATM   18  C7  UNL     1      17.977  -1.205  52.878  1.00  0.00     0.001 A 
HETATM   19  C8  UNL     1      17.716  -0.276  51.890  1.00  0.00     0.007 A 
ENDBRANCH  13  14
ENDBRANCH  11  13
ENDBRANCH   1  11
BRANCH  10  20
HETATM   20  O2  UNL     1      17.802   5.275  50.012  1.00  0.00    -0.390 OA
HETATM   21  H18 UNL     1      17.667   5.545  50.973  1.00  0.00     0.210 HD
ENDBRANCH  10  20
BRANCH   4  22
HETATM   22  N1  UNL     1      24.190   2.242  51.289  1.00  0.00    -0.341 N 
HETATM   23  H10 UNL     1      24.933   2.936  50.972  1.00  0.00     0.167 HD
BRANCH  22  24
HETATM   24  C13 UNL     1      24.562   1.191  52.153  1.00  0.00     0.034 A 
HETATM   25  C14 UNL     1      25.863   0.678  52.024  1.00  0.00     0.029 A 
HETATM   26  C15 UNL     1      26.380  -0.348  52.781  1.00  0.00     0.004 A 
HETATM   27  C16 UNL     1      25.579  -0.926  53.741  1.00  0.00     0.019 A 
HETATM   28  C17 UNL     1      24.295  -0.466  53.914  1.00  0.00     0.013 A 
HETATM   29 BR1  UNL     1      23.163  -1.239  55.228  1.00  0.00    -0.051 Br
HETATM   30  C18 UNL     1      23.860   0.558  53.119  1.00  0.00     0.048 A 
ENDBRANCH  22  24
ENDBRANCH   4  22
TORSDOF 6
ENDMDL
