MODEL 1
REMARK VINA RESULT:      -8.0      0.000      0.000
REMARK  6 active torsions:
REMARK  status: ('A' for Active; 'I' for Inactive)
REMARK    1  A    between atoms: N1_1  and  C1_2 
REMARK    2  A    between atoms: C1_2  and  N2_4 
REMARK    3  A    between atoms: N2_4  and  C2_5 
REMARK    4  A    between atoms: C2_5  and  C3_6 
REMARK    5  A    between atoms: C2_5  and  C11_15 
REMARK    6  A    between atoms: C4_7  and  C5_8 
ROOT
HETATM    1  C2  UNL     1      23.919   1.416  52.343  1.00  0.00     0.140 C 
ENDROOT
BRANCH   1   2
HETATM    2  N2  UNL     1      24.063   2.630  53.127  1.00  0.00    -0.355 N 
HETATM    3  H3  UNL     1      24.316   2.623  54.125  1.00  0.00     0.163 HD
BRANCH   2   4
HETATM    4  C1  UNL     1      23.841   3.853  52.472  1.00  0.00     0.166 C 
HETATM    5  S1  UNL     1      23.561   3.970  50.870  1.00  0.00    -0.041 SA
BRANCH   4   6
HETATM    6  N1  UNL     1      23.851   5.094  53.204  1.00  0.00    -0.376 N 
HETATM    7  H1  UNL     1      22.857   5.387  53.047  1.00  0.00     0.158 HD
HETATM    8  H2  UNL     1      24.587   5.615  53.754  1.00  0.00     0.158 HD
ENDBRANCH   4   6
ENDBRANCH   2   4
ENDBRANCH   1   2
BRANCH   1   9
HETATM    9  C3  UNL     1      25.110   0.561  52.428  1.00  0.00     0.004 C 
HETATM   10  C4  UNL     1      26.308   0.755  52.955  1.00  0.00     0.011 C 
BRANCH  10  11
HETATM   11  C5  UNL     1      27.584   0.078  53.147  1.00  0.00    -0.015 A 
HETATM   12  C6  UNL     1      27.659  -1.292  53.001  1.00  0.00     0.013 A 
HETATM   13  C7  UNL     1      28.899  -1.845  53.199  1.00  0.00     0.001 A 
HETATM   14  C8  UNL     1      29.984  -1.070  53.521  1.00  0.00     0.002 A 
HETATM   15  C9  UNL     1      29.917   0.298  53.669  1.00  0.00     0.024 A 
HETATM   16  C10 UNL     1      28.672   0.858  53.471  1.00  0.00     0.044 A 
HETATM   17 CL1  UNL     1      28.664   2.595  53.673  1.00  0.00    -0.083 Cl
ENDBRANCH  10  11
ENDBRANCH   1   9
BRANCH   1  18
HETATM   18  C11 UNL     1      22.803   0.655  53.019  1.00  0.00    -0.032 A 
HETATM   19  C12 UNL     1      23.089  -0.519  53.702  1.00  0.00     0.009 A 
HETATM   20  C13 UNL     1      22.106  -1.254  54.337  1.00  0.00     0.001 A 
HETATM   21  C14 UNL     1      20.807  -0.793  54.283  1.00  0.00     0.000 A 
HETATM   22  C15 UNL     1      20.487   0.379  53.608  1.00  0.00     0.001 A 
HETATM   23  C16 UNL     1      21.494   1.088  52.984  1.00  0.00     0.009 A 
ENDBRANCH   1  18
TORSDOF 6
ENDMDL
MODEL 2
REMARK VINA RESULT:      -7.9      1.378      1.745
REMARK  6 active torsions:
REMARK  status: ('A' for Active; 'I' for Inactive)
REMARK    1  A    between atoms: N1_1  and  C1_2 
REMARK    2  A    between atoms: C1_2  and  N2_4 
REMARK    3  A    between atoms: N2_4  and  C2_5 
REMARK    4  A    between atoms: C2_5  and  C3_6 
REMARK    5  A    between atoms: C2_5  and  C11_15 
REMARK    6  A    between atoms: C4_7  and  C5_8 
ROOT
HETATM    1  C2  UNL     1      23.732   1.095  52.377  1.00  0.00     0.140 C 
ENDROOT
BRANCH   1   2
HETATM    2  N2  UNL     1      23.389   2.462  52.726  1.00  0.00    -0.355 N 
HETATM    3  H3  UNL     1      22.955   2.718  53.624  1.00  0.00     0.163 HD
BRANCH   2   4
HETATM    4  C1  UNL     1      23.673   3.461  51.778  1.00  0.00     0.166 C 
HETATM    5  S1  UNL     1      23.573   3.220  50.169  1.00  0.00    -0.041 SA
BRANCH   4   6
HETATM    6  N1  UNL     1      24.074   4.780  52.197  1.00  0.00    -0.376 N 
HETATM    7  H1  UNL     1      25.078   4.751  51.896  1.00  0.00     0.158 HD
HETATM    8  H2  UNL     1      23.576   5.584  52.667  1.00  0.00     0.158 HD
ENDBRANCH   4   6
ENDBRANCH   2   4
ENDBRANCH   1   2
BRANCH   1   9
HETATM    9  C3  UNL     1      24.988   0.664  53.004  1.00  0.00     0.004 C 
HETATM   10  C4  UNL     1      26.218   0.534  52.533  1.00  0.00     0.011 C 
BRANCH  10  11
HETATM   11  C5  UNL     1      27.556   0.142  52.954  1.00  0.00    -0.015 A 
HETATM   12  C6  UNL     1      28.435   1.100  53.418  1.00  0.00     0.013 A 
HETATM   13  C7  UNL     1      29.672   0.642  53.793  1.00  0.00     0.001 A 
HETATM   14  C8  UNL     1      29.999  -0.688  53.705  1.00  0.00     0.002 A 
HETATM   15  C9  UNL     1      29.128  -1.649  53.243  1.00  0.00     0.024 A 
HETATM   16  C10 UNL     1      27.882  -1.193  52.864  1.00  0.00     0.044 A 
HETATM   17 CL1  UNL     1      26.833  -2.468  52.290  1.00  0.00    -0.083 Cl
ENDBRANCH  10  11
ENDBRANCH   1   9
BRANCH   1  18
HETATM   18  C11 UNL     1      22.640   0.257  53.000  1.00  0.00    -0.032 A 
HETATM   19  C12 UNL     1      22.964  -0.677  53.974  1.00  0.00     0.009 A 
HETATM   20  C13 UNL     1      22.005  -1.470  54.576  1.00  0.00     0.001 A 
HETATM   21  C14 UNL     1      20.690  -1.314  54.187  1.00  0.00     0.000 A 
HETATM   22  C15 UNL     1      20.333  -0.387  53.215  1.00  0.00     0.001 A 
HETATM   23  C16 UNL     1      21.317   0.387  52.634  1.00  0.00     0.009 A 
ENDBRANCH   1  18
TORSDOF 6
ENDMDL
MODEL 3
REMARK VINA RESULT:      -7.7      3.525      5.434
REMARK  6 active torsions:
REMARK  status: ('A' for Active; 'I' for Inactive)
REMARK    1  A    between atoms: N1_1  and  C1_2 
REMARK    2  A    between atoms: C1_2  and  N2_4 
REMARK    3  A    between atoms: N2_4  and  C2_5 
REMARK    4  A    between atoms: C2_5  and  C3_6 
REMARK    5  A    between atoms: C2_5  and  C11_15 
REMARK    6  A    between atoms: C4_7  and  C5_8 
ROOT
HETATM    1  C2  UNL     1      26.195  -0.307  53.337  1.00  0.00     0.140 C 
ENDROOT
BRANCH   1   2
HETATM    2  N2  UNL     1      26.697  -1.610  52.940  1.00  0.00    -0.355 N 
HETATM    3  H3  UNL     1      26.106  -2.322  52.486  1.00  0.00     0.163 HD
BRANCH   2   4
HETATM    4  C1  UNL     1      28.051  -1.888  53.196  1.00  0.00     0.166 C 
HETATM    5  S1  UNL     1      29.136  -0.741  53.601  1.00  0.00    -0.041 SA
BRANCH   4   6
HETATM    6  N1  UNL     1      28.555  -3.234  53.111  1.00  0.00    -0.376 N 
HETATM    7  H1  UNL     1      28.082  -3.643  53.953  1.00  0.00     0.158 HD
HETATM    8  H2  UNL     1      29.203  -3.734  52.443  1.00  0.00     0.158 HD
ENDBRANCH   4   6
ENDBRANCH   2   4
ENDBRANCH   1   2
BRANCH   1   9
HETATM    9  C3  UNL     1      25.991   0.581  52.185  1.00  0.00     0.004 C 
HETATM   10  C4  UNL     1      25.903   1.897  52.082  1.00  0.00     0.011 C 
BRANCH  10  11
HETATM   11  C5  UNL     1      25.711   2.944  51.087  1.00  0.00    -0.015 A 
HETATM   12  C6  UNL     1      26.691   3.179  50.145  1.00  0.00     0.013 A 
HETATM   13  C7  UNL     1      26.427   4.182  49.247  1.00  0.00     0.001 A 
HETATM   14  C8  UNL     1      25.257   4.898  49.299  1.00  0.00     0.002 A 
HETATM   15  C9  UNL     1      24.275   4.670  50.237  1.00  0.00     0.024 A 
HETATM   16  C10 UNL     1      24.537   3.661  51.141  1.00  0.00     0.044 A 
HETATM   17 CL1  UNL     1      23.247   3.429  52.299  1.00  0.00    -0.083 Cl
ENDBRANCH  10  11
ENDBRANCH   1   9
BRANCH   1  18
HETATM   18  C11 UNL     1      24.823  -0.583  53.906  1.00  0.00    -0.032 A 
HETATM   19  C12 UNL     1      23.696  -0.291  53.150  1.00  0.00     0.009 A 
HETATM   20  C13 UNL     1      22.418  -0.524  53.622  1.00  0.00     0.001 A 
HETATM   21  C14 UNL     1      22.275  -1.063  54.884  1.00  0.00     0.000 A 
HETATM   22  C15 UNL     1      23.383  -1.367  55.666  1.00  0.00     0.001 A 
HETATM   23  C16 UNL     1      24.645  -1.121  55.163  1.00  0.00     0.009 A 
ENDBRANCH   1  18
TORSDOF 6
ENDMDL
MODEL 4
REMARK VINA RESULT:      -7.7      2.100      6.025
REMARK  6 active torsions:
REMARK  status: ('A' for Active; 'I' for Inactive)
REMARK    1  A    between atoms: N1_1  and  C1_2 
REMARK    2  A    between atoms: C1_2  and  N2_4 
REMARK    3  A    between atoms: N2_4  and  C2_5 
REMARK    4  A    between atoms: C2_5  and  C3_6 
REMARK    5  A    between atoms: C2_5  and  C11_15 
REMARK    6  A    between atoms: C4_7  and  C5_8 
ROOT
HETATM    1  C2  UNL     1      26.148   1.747  52.322  1.00  0.00     0.140 C 
ENDROOT
BRANCH   1   2
HETATM    2  N2  UNL     1      26.496   2.122  50.962  1.00  0.00    -0.355 N 
HETATM    3  H3  UNL     1      26.973   1.483  50.311  1.00  0.00     0.163 HD
BRANCH   2   4
HETATM    4  C1  UNL     1      26.153   3.419  50.542  1.00  0.00     0.166 C 
HETATM    5  S1  UNL     1      26.850   4.157  49.266  1.00  0.00    -0.041 SA
BRANCH   4   6
HETATM    6  N1  UNL     1      25.144   4.176  51.237  1.00  0.00    -0.376 N 
HETATM    7  H1  UNL     1      25.348   3.864  52.218  1.00  0.00     0.158 HD
HETATM    8  H2  UNL     1      24.395   4.854  50.931  1.00  0.00     0.158 HD
ENDBRANCH   4   6
ENDBRANCH   2   4
ENDBRANCH   1   2
BRANCH   1   9
HETATM    9  C3  UNL     1      24.943   0.910  52.372  1.00  0.00     0.004 C 
HETATM   10  C4  UNL     1      23.843   0.978  53.105  1.00  0.00     0.011 C 
BRANCH  10  11
HETATM   11  C5  UNL     1      22.577   0.288  53.314  1.00  0.00    -0.015 A 
HETATM   12  C6  UNL     1      21.474   0.644  52.566  1.00  0.00     0.013 A 
HETATM   13  C7  UNL     1      20.325  -0.058  52.829  1.00  0.00     0.001 A 
HETATM   14  C8  UNL     1      20.292  -1.047  53.779  1.00  0.00     0.002 A 
HETATM   15  C9  UNL     1      21.389  -1.407  54.530  1.00  0.00     0.024 A 
HETATM   16  C10 UNL     1      22.547  -0.704  54.269  1.00  0.00     0.044 A 
HETATM   17 CL1  UNL     1      23.895  -1.216  55.258  1.00  0.00    -0.083 Cl
ENDBRANCH  10  11
ENDBRANCH   1   9
BRANCH   1  18
HETATM   18  C11 UNL     1      27.290   0.871  52.780  1.00  0.00    -0.032 A 
HETATM   19  C12 UNL     1      27.189  -0.508  52.658  1.00  0.00     0.009 A 
HETATM   20  C13 UNL     1      28.204  -1.355  53.061  1.00  0.00     0.001 A 
HETATM   21  C14 UNL     1      29.346  -0.798  53.598  1.00  0.00     0.000 A 
HETATM   22  C15 UNL     1      29.480   0.579  53.733  1.00  0.00     0.001 A 
HETATM   23  C16 UNL     1      28.446   1.395  53.320  1.00  0.00     0.009 A 
ENDBRANCH   1  18
TORSDOF 6
ENDMDL
MODEL 5
REMARK VINA RESULT:      -7.6      2.288      6.101
REMARK  6 active torsions:
REMARK  status: ('A' for Active; 'I' for Inactive)
REMARK    1  A    between atoms: N1_1  and  C1_2 
REMARK    2  A    between atoms: C1_2  and  N2_4 
REMARK    3  A    between atoms: N2_4  and  C2_5 
REMARK    4  A    between atoms: C2_5  and  C3_6 
REMARK    5  A    between atoms: C2_5  and  C11_15 
REMARK    6  A    between atoms: C4_7  and  C5_8 
ROOT
HETATM    1  C2  UNL     1      26.354   1.653  52.730  1.00  0.00     0.140 C 
ENDROOT
BRANCH   1   2
HETATM    2  N2  UNL     1      26.242   1.714  51.283  1.00  0.00    -0.355 N 
HETATM    3  H3  UNL     1      26.365   0.890  50.678  1.00  0.00     0.163 HD
BRANCH   2   4
HETATM    4  C1  UNL     1      25.951   2.964  50.710  1.00  0.00     0.166 C 
HETATM    5  S1  UNL     1      24.440   3.442  50.329  1.00  0.00    -0.041 SA
BRANCH   4   6
HETATM    6  N1  UNL     1      27.003   3.906  50.425  1.00  0.00    -0.376 N 
HETATM    7  H1  UNL     1      26.435   4.655  49.960  1.00  0.00     0.158 HD
HETATM    8  H2  UNL     1      28.045   3.916  50.597  1.00  0.00     0.158 HD
ENDBRANCH   4   6
ENDBRANCH   2   4
ENDBRANCH   1   2
BRANCH   1   9
HETATM    9  C3  UNL     1      25.148   1.092  53.353  1.00  0.00     0.004 C 
HETATM   10  C4  UNL     1      24.049   0.560  52.842  1.00  0.00     0.011 C 
BRANCH  10  11
HETATM   11  C5  UNL     1      22.783  -0.034  53.251  1.00  0.00    -0.015 A 
HETATM   12  C6  UNL     1      22.729  -0.810  54.391  1.00  0.00     0.013 A 
HETATM   13  C7  UNL     1      21.497  -1.328  54.701  1.00  0.00     0.001 A 
HETATM   14  C8  UNL     1      20.400  -1.082  53.915  1.00  0.00     0.002 A 
HETATM   15  C9  UNL     1      20.446  -0.310  52.775  1.00  0.00     0.024 A 
HETATM   16  C10 UNL     1      21.683   0.214  52.460  1.00  0.00     0.044 A 
HETATM   17 CL1  UNL     1      21.664   1.182  51.004  1.00  0.00    -0.083 Cl
ENDBRANCH  10  11
ENDBRANCH   1   9
BRANCH   1  18
HETATM   18  C11 UNL     1      27.462   0.659  52.985  1.00  0.00    -0.032 A 
HETATM   19  C12 UNL     1      28.693   1.107  53.445  1.00  0.00     0.009 A 
HETATM   20  C13 UNL     1      29.741   0.241  53.694  1.00  0.00     0.001 A 
HETATM   21  C14 UNL     1      29.541  -1.107  53.475  1.00  0.00     0.000 A 
HETATM   22  C15 UNL     1      28.320  -1.588  53.016  1.00  0.00     0.001 A 
HETATM   23  C16 UNL     1      27.296  -0.694  52.777  1.00  0.00     0.009 A 
ENDBRANCH   1  18
TORSDOF 6
ENDMDL
MODEL 6
REMARK VINA RESULT:      -7.5      3.051      6.313
REMARK  6 active torsions:
REMARK  status: ('A' for Active; 'I' for Inactive)
REMARK    1  A    between atoms: N1_1  and  C1_2 
REMARK    2  A    between atoms: C1_2  and  N2_4 
REMARK    3  A    between atoms: N2_4  and  C2_5 
REMARK    4  A    between atoms: C2_5  and  C3_6 
REMARK    5  A    between atoms: C2_5  and  C11_15 
REMARK    6  A    between atoms: C4_7  and  C5_8 
ROOT
HETATM    1  C2  UNL     1      26.129   0.058  52.389  1.00  0.00     0.140 C 
ENDROOT
BRANCH   1   2
HETATM    2  N2  UNL     1      25.459   0.500  53.600  1.00  0.00    -0.355 N 
HETATM    3  H3  UNL     1      25.591   1.440  54.000  1.00  0.00     0.163 HD
BRANCH   2   4
HETATM    4  C1  UNL     1      24.597  -0.412  54.232  1.00  0.00     0.166 C 
HETATM    5  S1  UNL     1      23.060  -0.668  53.752  1.00  0.00    -0.041 SA
BRANCH   4   6
HETATM    6  N1  UNL     1      25.043  -1.185  55.363  1.00  0.00    -0.376 N 
HETATM    7  H1  UNL     1      24.738  -2.136  55.045  1.00  0.00     0.158 HD
HETATM    8  H2  UNL     1      25.532  -0.945  56.268  1.00  0.00     0.158 HD
ENDBRANCH   4   6
ENDBRANCH   2   4
ENDBRANCH   1   2
BRANCH   1   9
HETATM    9  C3  UNL     1      26.351   1.162  51.447  1.00  0.00     0.004 C 
HETATM   10  C4  UNL     1      25.776   2.346  51.314  1.00  0.00     0.011 C 
BRANCH  10  11
HETATM   11  C5  UNL     1      25.832   3.546  50.489  1.00  0.00    -0.015 A 
HETATM   12  C6  UNL     1      26.870   3.712  49.596  1.00  0.00     0.013 A 
HETATM   13  C7  UNL     1      26.844   4.870  48.860  1.00  0.00     0.001 A 
HETATM   14  C8  UNL     1      25.842   5.794  49.017  1.00  0.00     0.002 A 
HETATM   15  C9  UNL     1      24.802   5.635  49.907  1.00  0.00     0.024 A 
HETATM   16  C10 UNL     1      24.825   4.472  50.649  1.00  0.00     0.044 A 
HETATM   17 CL1  UNL     1      23.477   4.339  51.754  1.00  0.00    -0.083 Cl
ENDBRANCH  10  11
ENDBRANCH   1   9
BRANCH   1  18
HETATM   18  C11 UNL     1      27.497  -0.386  52.851  1.00  0.00    -0.032 A 
HETATM   19  C12 UNL     1      28.408   0.559  53.304  1.00  0.00     0.009 A 
HETATM   20  C13 UNL     1      29.672   0.207  53.737  1.00  0.00     0.001 A 
HETATM   21  C14 UNL     1      30.024  -1.126  53.713  1.00  0.00     0.000 A 
HETATM   22  C15 UNL     1      29.135  -2.097  53.267  1.00  0.00     0.001 A 
HETATM   23  C16 UNL     1      27.881  -1.711  52.841  1.00  0.00     0.009 A 
ENDBRANCH   1  18
TORSDOF 6
ENDMDL
MODEL 7
REMARK VINA RESULT:      -7.4      2.864      4.045
REMARK  6 active torsions:
REMARK  status: ('A' for Active; 'I' for Inactive)
REMARK    1  A    between atoms: N1_1  and  C1_2 
REMARK    2  A    between atoms: C1_2  and  N2_4 
REMARK    3  A    between atoms: N2_4  and  C2_5 
REMARK    4  A    between atoms: C2_5  and  C3_6 
REMARK    5  A    between atoms: C2_5  and  C11_15 
REMARK    6  A    between atoms: C4_7  and  C5_8 
ROOT
HETATM    1  C2  UNL     1      23.335   1.300  52.622  1.00  0.00     0.140 C 
ENDROOT
BRANCH   1   2
HETATM    2  N2  UNL     1      22.829  -0.062  52.617  1.00  0.00    -0.355 N 
HETATM    3  H3  UNL     1      23.066  -0.743  51.882  1.00  0.00     0.163 HD
BRANCH   2   4
HETATM    4  C1  UNL     1      21.981  -0.440  53.672  1.00  0.00     0.166 C 
HETATM    5  S1  UNL     1      22.505  -1.230  54.999  1.00  0.00    -0.041 SA
BRANCH   4   6
HETATM    6  N1  UNL     1      20.573  -0.139  53.630  1.00  0.00    -0.376 N 
HETATM    7  H1  UNL     1      20.200  -1.107  53.479  1.00  0.00     0.158 HD
HETATM    8  H2  UNL     1      20.011   0.751  53.716  1.00  0.00     0.158 HD
ENDBRANCH   4   6
ENDBRANCH   2   4
ENDBRANCH   1   2
BRANCH   1   9
HETATM    9  C3  UNL     1      24.774   1.353  52.912  1.00  0.00     0.004 C 
HETATM   10  C4  UNL     1      25.694   0.407  53.019  1.00  0.00     0.011 C 
BRANCH  10  11
HETATM   11  C5  UNL     1      27.115   0.236  53.289  1.00  0.00    -0.015 A 
HETATM   12  C6  UNL     1      27.842   1.287  53.810  1.00  0.00     0.013 A 
HETATM   13  C7  UNL     1      29.173   1.037  54.033  1.00  0.00     0.001 A 
HETATM   14  C8  UNL     1      29.729  -0.184  53.747  1.00  0.00     0.002 A 
HETATM   15  C9  UNL     1      29.010  -1.237  53.226  1.00  0.00     0.024 A 
HETATM   16  C10 UNL     1      27.671  -0.991  53.001  1.00  0.00     0.044 A 
HETATM   17 CL1  UNL     1      26.824  -2.370  52.341  1.00  0.00    -0.083 Cl
ENDBRANCH  10  11
ENDBRANCH   1   9
BRANCH   1  18
HETATM   18  C11 UNL     1      23.175   1.772  51.196  1.00  0.00    -0.032 A 
HETATM   19  C12 UNL     1      24.053   2.715  50.682  1.00  0.00     0.009 A 
HETATM   20  C13 UNL     1      23.951   3.181  49.385  1.00  0.00     0.001 A 
HETATM   21  C14 UNL     1      22.941   2.683  48.589  1.00  0.00     0.000 A 
HETATM   22  C15 UNL     1      22.045   1.736  49.073  1.00  0.00     0.001 A 
HETATM   23  C16 UNL     1      22.176   1.294  50.373  1.00  0.00     0.009 A 
ENDBRANCH   1  18
TORSDOF 6
ENDMDL
MODEL 8
REMARK VINA RESULT:      -7.3      3.182      6.298
REMARK  6 active torsions:
REMARK  status: ('A' for Active; 'I' for Inactive)
REMARK    1  A    between atoms: N1_1  and  C1_2 
REMARK    2  A    between atoms: C1_2  and  N2_4 
REMARK    3  A    between atoms: N2_4  and  C2_5 
REMARK    4  A    between atoms: C2_5  and  C3_6 
REMARK    5  A    between atoms: C2_5  and  C11_15 
REMARK    6  A    between atoms: C4_7  and  C5_8 
ROOT
HETATM    1  C2  UNL     1      26.147   1.949  51.683  1.00  0.00     0.140 C 
ENDROOT
BRANCH   1   2
HETATM    2  N2  UNL     1      26.669   2.519  52.912  1.00  0.00    -0.355 N 
HETATM    3  H3  UNL     1      26.244   3.335  53.375  1.00  0.00     0.163 HD
BRANCH   2   4
HETATM    4  C1  UNL     1      27.804   1.910  53.476  1.00  0.00     0.166 C 
HETATM    5  S1  UNL     1      27.807   0.385  54.051  1.00  0.00    -0.041 SA
BRANCH   4   6
HETATM    6  N1  UNL     1      29.051   2.624  53.573  1.00  0.00    -0.376 N 
HETATM    7  H1  UNL     1      29.275   2.708  52.552  1.00  0.00     0.158 HD
HETATM    8  H2  UNL     1      29.628   2.987  54.380  1.00  0.00     0.158 HD
ENDBRANCH   4   6
ENDBRANCH   2   4
ENDBRANCH   1   2
BRANCH   1   9
HETATM    9  C3  UNL     1      24.846   1.300  51.885  1.00  0.00     0.004 C 
HETATM   10  C4  UNL     1      24.190   0.944  52.978  1.00  0.00     0.011 C 
BRANCH  10  11
HETATM   11  C5  UNL     1      22.944   0.316  53.397  1.00  0.00    -0.015 A 
HETATM   12  C6  UNL     1      22.977  -0.906  54.037  1.00  0.00     0.013 A 
HETATM   13  C7  UNL     1      21.758  -1.423  54.396  1.00  0.00     0.001 A 
HETATM   14  C8  UNL     1      20.590  -0.755  54.128  1.00  0.00     0.002 A 
HETATM   15  C9  UNL     1      20.550   0.465  53.489  1.00  0.00     0.024 A 
HETATM   16  C10 UNL     1      21.773   0.989  53.126  1.00  0.00     0.044 A 
HETATM   17 CL1  UNL     1      21.643   2.537  52.323  1.00  0.00    -0.083 Cl
ENDBRANCH  10  11
ENDBRANCH   1   9
BRANCH   1  18
HETATM   18  C11 UNL     1      25.891   3.140  50.789  1.00  0.00    -0.032 A 
HETATM   19  C12 UNL     1      26.846   3.516  49.856  1.00  0.00     0.009 A 
HETATM   20  C13 UNL     1      26.663   4.597  49.015  1.00  0.00     0.001 A 
HETATM   21  C14 UNL     1      25.488   5.313  49.118  1.00  0.00     0.000 A 
HETATM   22  C15 UNL     1      24.510   4.962  50.042  1.00  0.00     0.001 A 
HETATM   23  C16 UNL     1      24.728   3.877  50.866  1.00  0.00     0.009 A 
ENDBRANCH   1  18
TORSDOF 6
ENDMDL
MODEL 9
REMARK VINA RESULT:      -7.3      7.180      8.478
REMARK  6 active torsions:
REMARK  status: ('A' for Active; 'I' for Inactive)
REMARK    1  A    between atoms: N1_1  and  C1_2 
REMARK    2  A    between atoms: C1_2  and  N2_4 
REMARK    3  A    between atoms: N2_4  and  C2_5 
REMARK    4  A    between atoms: C2_5  and  C3_6 
REMARK    5  A    between atoms: C2_5  and  C11_15 
REMARK    6  A    between atoms: C4_7  and  C5_8 
ROOT
HETATM    1  C2  UNL     1      28.704   6.637  48.113  1.00  0.00     0.140 C 
ENDROOT
BRANCH   1   2
HETATM    2  N2  UNL     1      28.908   7.626  49.157  1.00  0.00    -0.355 N 
HETATM    3  H3  UNL     1      28.611   7.478  50.132  1.00  0.00     0.163 HD
BRANCH   2   4
HETATM    4  C1  UNL     1      29.541   8.828  48.795  1.00  0.00     0.166 C 
HETATM    5  S1  UNL     1      29.692   9.327  47.251  1.00  0.00    -0.041 SA
BRANCH   4   6
HETATM    6  N1  UNL     1      30.100   9.697  49.798  1.00  0.00    -0.376 N 
HETATM    7  H1  UNL     1      29.228   9.906  50.341  1.00  0.00     0.158 HD
HETATM    8  H2  UNL     1      31.072  10.060  49.996  1.00  0.00     0.158 HD
ENDBRANCH   4   6
ENDBRANCH   2   4
ENDBRANCH   1   2
BRANCH   1   9
HETATM    9  C3  UNL     1      29.753   5.609  48.115  1.00  0.00     0.004 C 
HETATM   10  C4  UNL     1      30.973   5.584  47.603  1.00  0.00     0.011 C 
BRANCH  10  11
HETATM   11  C5  UNL     1      32.135   4.712  47.487  1.00  0.00    -0.015 A 
HETATM   12  C6  UNL     1      31.997   3.464  46.915  1.00  0.00     0.013 A 
HETATM   13  C7  UNL     1      33.142   2.711  46.847  1.00  0.00     0.001 A 
HETATM   14  C8  UNL     1      34.339   3.183  47.324  1.00  0.00     0.002 A 
HETATM   15  C9  UNL     1      34.483   4.428  47.896  1.00  0.00     0.024 A 
HETATM   16  C10 UNL     1      33.335   5.189  47.967  1.00  0.00     0.044 A 
HETATM   17 CL1  UNL     1      33.595   6.753  48.703  1.00  0.00    -0.083 Cl
ENDBRANCH  10  11
ENDBRANCH   1   9
BRANCH   1  18
HETATM   18  C11 UNL     1      27.424   5.934  48.498  1.00  0.00    -0.032 A 
HETATM   19  C12 UNL     1      27.462   4.603  48.886  1.00  0.00     0.009 A 
HETATM   20  C13 UNL     1      26.320   3.912  49.247  1.00  0.00     0.001 A 
HETATM   21  C14 UNL     1      25.115   4.582  49.217  1.00  0.00     0.000 A 
HETATM   22  C15 UNL     1      25.042   5.916  48.834  1.00  0.00     0.001 A 
HETATM   23  C16 UNL     1      26.202   6.574  48.479  1.00  0.00     0.009 A 
ENDBRANCH   1  18
TORSDOF 6
ENDMDL
