MODEL 1
REMARK VINA RESULT:      -7.3      0.000      0.000
REMARK  3 active torsions:
REMARK  status: ('A' for Active; 'I' for Inactive)
REMARK    1  A    between atoms: C4_4  and  C5_5 
REMARK    2  A    between atoms: C9_9  and  N1_10 
REMARK    3  A    between atoms: N1_10  and  C11_12 
ROOT
HETATM    1  C5  UNL     1      26.058  -0.110  53.208  1.00  0.00    -0.037 C 
HETATM    2  C6  UNL     1      25.042  -0.718  54.124  1.00  0.00     0.050 C 
HETATM    3  C7  UNL     1      25.725   0.962  52.477  1.00  0.00     0.049 A 
HETATM    4  C8  UNL     1      24.368   1.503  52.599  1.00  0.00     0.138 A 
HETATM    5  C9  UNL     1      24.240   2.706  51.702  1.00  0.00     0.113 A 
HETATM    6  N2  UNL     1      25.179   3.169  50.950  1.00  0.00    -0.228 NA
HETATM    7  C17 UNL     1      26.467   2.569  50.894  1.00  0.00     0.235 A 
HETATM    8  N3  UNL     1      26.703   1.533  51.618  1.00  0.00    -0.246 NA
ENDROOT
BRANCH   5   9
HETATM    9  N1  UNL     1      22.924   3.271  51.798  1.00  0.00    -0.339 N 
HETATM   10  C10 UNL     1      22.567   4.607  52.217  1.00  0.00     0.158 C 
BRANCH   9  11
HETATM   11  C11 UNL     1      21.835   2.418  51.442  1.00  0.00     0.035 A 
HETATM   12  C12 UNL     1      21.804   1.781  50.209  1.00  0.00     0.029 A 
HETATM   13  C13 UNL     1      20.741   0.971  49.907  1.00  0.00     0.002 A 
HETATM   14  C14 UNL     1      19.696   0.756  50.769  1.00  0.00     0.000 A 
HETATM   15  C15 UNL     1      19.692   1.375  52.011  1.00  0.00     0.002 A 
HETATM   16  C16 UNL     1      20.767   2.177  52.280  1.00  0.00     0.029 A 
ENDBRANCH   9  11
ENDBRANCH   5   9
BRANCH   1  17
HETATM   17  C4  UNL     1      27.411  -0.657  53.089  1.00  0.00     0.010 C 
HETATM   18  C2  UNL     1      28.565  -0.526  53.714  1.00  0.00    -0.087 C 
HETATM   19  C1  UNL     1      29.841  -1.249  53.348  1.00  0.00     0.043 C 
HETATM   20  C3  UNL     1      28.718   0.386  54.885  1.00  0.00     0.043 C 
ENDBRANCH   1  17
TORSDOF 3
ENDMDL
MODEL 2
REMARK VINA RESULT:      -7.1      1.688      2.797
REMARK  3 active torsions:
REMARK  status: ('A' for Active; 'I' for Inactive)
REMARK    1  A    between atoms: C4_4  and  C5_5 
REMARK    2  A    between atoms: C9_9  and  N1_10 
REMARK    3  A    between atoms: N1_10  and  C11_12 
ROOT
HETATM    1  C5  UNL     1      26.435   0.885  52.190  1.00  0.00    -0.037 C 
HETATM    2  C6  UNL     1      26.721   1.959  51.188  1.00  0.00     0.050 C 
HETATM    3  C7  UNL     1      25.169   0.655  52.562  1.00  0.00     0.049 A 
HETATM    4  C8  UNL     1      24.103   1.471  51.972  1.00  0.00     0.138 A 
HETATM    5  C9  UNL     1      22.779   1.017  52.527  1.00  0.00     0.113 A 
HETATM    6  N2  UNL     1      22.624   0.067  53.385  1.00  0.00    -0.228 NA
HETATM    7  C17 UNL     1      23.725  -0.666  53.906  1.00  0.00     0.235 A 
HETATM    8  N3  UNL     1      24.912  -0.374  53.508  1.00  0.00    -0.246 NA
ENDROOT
BRANCH   5   9
HETATM    9  N1  UNL     1      21.705   1.789  51.967  1.00  0.00    -0.339 N 
HETATM   10  C10 UNL     1      20.557   2.331  52.658  1.00  0.00     0.158 C 
BRANCH   9  11
HETATM   11  C11 UNL     1      21.773   2.056  50.566  1.00  0.00     0.035 A 
HETATM   12  C12 UNL     1      21.544   1.050  49.638  1.00  0.00     0.029 A 
HETATM   13  C13 UNL     1      21.619   1.348  48.303  1.00  0.00     0.002 A 
HETATM   14  C14 UNL     1      21.911   2.604  47.833  1.00  0.00     0.000 A 
HETATM   15  C15 UNL     1      22.145   3.635  48.731  1.00  0.00     0.002 A 
HETATM   16  C16 UNL     1      22.063   3.304  50.055  1.00  0.00     0.029 A 
ENDBRANCH   9  11
ENDBRANCH   5   9
BRANCH   1  17
HETATM   17  C4  UNL     1      27.505   0.075  52.776  1.00  0.00     0.010 C 
HETATM   18  C2  UNL     1      28.561   0.275  53.539  1.00  0.00    -0.087 C 
HETATM   19  C1  UNL     1      29.520  -0.799  53.999  1.00  0.00     0.043 C 
HETATM   20  C3  UNL     1      28.917   1.636  54.037  1.00  0.00     0.043 C 
ENDBRANCH   1  17
TORSDOF 3
ENDMDL
MODEL 3
REMARK VINA RESULT:      -7.1      1.784      2.692
REMARK  3 active torsions:
REMARK  status: ('A' for Active; 'I' for Inactive)
REMARK    1  A    between atoms: C4_4  and  C5_5 
REMARK    2  A    between atoms: C9_9  and  N1_10 
REMARK    3  A    between atoms: N1_10  and  C11_12 
ROOT
HETATM    1  C5  UNL     1      26.354   0.856  52.265  1.00  0.00    -0.037 C 
HETATM    2  C6  UNL     1      26.500   1.946  51.249  1.00  0.00     0.050 C 
HETATM    3  C7  UNL     1      25.138   0.573  52.751  1.00  0.00     0.049 A 
HETATM    4  C8  UNL     1      23.989   1.346  52.271  1.00  0.00     0.138 A 
HETATM    5  C9  UNL     1      22.742   0.835  52.943  1.00  0.00     0.113 A 
HETATM    6  N2  UNL     1      22.707  -0.124  53.804  1.00  0.00    -0.228 NA
HETATM    7  C17 UNL     1      23.882  -0.813  54.214  1.00  0.00     0.235 A 
HETATM    8  N3  UNL     1      25.013  -0.470  53.709  1.00  0.00    -0.246 NA
ENDROOT
BRANCH   5   9
HETATM    9  N1  UNL     1      21.590   1.564  52.493  1.00  0.00    -0.339 N 
HETATM   10  C10 UNL     1      21.501   2.977  52.198  1.00  0.00     0.158 C 
BRANCH   9  11
HETATM   11  C11 UNL     1      20.388   0.813  52.314  1.00  0.00     0.035 A 
HETATM   12  C12 UNL     1      19.649   0.920  51.145  1.00  0.00     0.029 A 
HETATM   13  C13 UNL     1      18.503   0.181  51.015  1.00  0.00     0.002 A 
HETATM   14  C14 UNL     1      18.044  -0.666  51.991  1.00  0.00     0.000 A 
HETATM   15  C15 UNL     1      18.757  -0.799  53.174  1.00  0.00     0.002 A 
HETATM   16  C16 UNL     1      19.895  -0.048  53.272  1.00  0.00     0.029 A 
ENDBRANCH   9  11
ENDBRANCH   5   9
BRANCH   1  17
HETATM   17  C4  UNL     1      27.506   0.089  52.742  1.00  0.00     0.010 C 
HETATM   18  C2  UNL     1      28.598   0.321  53.443  1.00  0.00    -0.087 C 
HETATM   19  C1  UNL     1      29.646  -0.711  53.789  1.00  0.00     0.043 C 
HETATM   20  C3  UNL     1      28.907   1.679  53.979  1.00  0.00     0.043 C 
ENDBRANCH   1  17
TORSDOF 3
ENDMDL
MODEL 4
REMARK VINA RESULT:      -7.0      2.374      6.390
REMARK  3 active torsions:
REMARK  status: ('A' for Active; 'I' for Inactive)
REMARK    1  A    between atoms: C4_4  and  C5_5 
REMARK    2  A    between atoms: C9_9  and  N1_10 
REMARK    3  A    between atoms: N1_10  and  C11_12 
ROOT
HETATM    1  C5  UNL     1      25.720   3.957  49.848  1.00  0.00    -0.037 C 
HETATM    2  C6  UNL     1      26.775   3.049  49.298  1.00  0.00     0.050 C 
HETATM    3  C7  UNL     1      24.954   3.534  50.862  1.00  0.00     0.049 A 
HETATM    4  C8  UNL     1      25.174   2.187  51.397  1.00  0.00     0.138 A 
HETATM    5  C9  UNL     1      24.214   1.949  52.531  1.00  0.00     0.113 A 
HETATM    6  N2  UNL     1      23.339   2.800  52.949  1.00  0.00    -0.228 NA
HETATM    7  C17 UNL     1      23.195   4.086  52.359  1.00  0.00     0.235 A 
HETATM    8  N3  UNL     1      23.962   4.411  51.380  1.00  0.00    -0.246 NA
ENDROOT
BRANCH   5   9
HETATM    9  N1  UNL     1      24.403   0.639  53.089  1.00  0.00    -0.339 N 
HETATM   10  C10 UNL     1      23.387  -0.339  53.406  1.00  0.00     0.158 C 
BRANCH   9  11
HETATM   11  C11 UNL     1      25.749   0.251  53.366  1.00  0.00     0.035 A 
HETATM   12  C12 UNL     1      26.481   0.883  54.361  1.00  0.00     0.029 A 
HETATM   13  C13 UNL     1      27.770   0.480  54.594  1.00  0.00     0.002 A 
HETATM   14  C14 UNL     1      28.378  -0.526  53.887  1.00  0.00     0.000 A 
HETATM   15  C15 UNL     1      27.677  -1.181  52.885  1.00  0.00     0.002 A 
HETATM   16  C16 UNL     1      26.395  -0.754  52.677  1.00  0.00     0.029 A 
ENDBRANCH   9  11
ENDBRANCH   5   9
BRANCH   1  17
HETATM   17  C4  UNL     1      25.504   5.300  49.308  1.00  0.00     0.010 C 
HETATM   18  C2  UNL     1      26.222   6.227  48.705  1.00  0.00    -0.087 C 
HETATM   19  C1  UNL     1      25.703   7.571  48.246  1.00  0.00     0.043 C 
HETATM   20  C3  UNL     1      27.670   6.022  48.410  1.00  0.00     0.043 C 
ENDBRANCH   1  17
TORSDOF 3
ENDMDL
MODEL 5
REMARK VINA RESULT:      -7.0      1.806      2.355
REMARK  3 active torsions:
REMARK  status: ('A' for Active; 'I' for Inactive)
REMARK    1  A    between atoms: C4_4  and  C5_5 
REMARK    2  A    between atoms: C9_9  and  N1_10 
REMARK    3  A    between atoms: N1_10  and  C11_12 
ROOT
HETATM    1  C5  UNL     1      26.132   0.040  52.609  1.00  0.00    -0.037 C 
HETATM    2  C6  UNL     1      24.997  -0.730  53.208  1.00  0.00     0.050 C 
HETATM    3  C7  UNL     1      25.875   1.167  51.932  1.00  0.00     0.049 A 
HETATM    4  C8  UNL     1      24.483   1.607  51.799  1.00  0.00     0.138 A 
HETATM    5  C9  UNL     1      24.451   2.895  51.021  1.00  0.00     0.113 A 
HETATM    6  N2  UNL     1      25.488   3.500  50.549  1.00  0.00    -0.228 NA
HETATM    7  C17 UNL     1      26.804   2.989  50.726  1.00  0.00     0.235 A 
HETATM    8  N3  UNL     1      26.964   1.892  51.377  1.00  0.00    -0.246 NA
ENDROOT
BRANCH   5   9
HETATM    9  N1  UNL     1      23.102   3.364  50.875  1.00  0.00    -0.339 N 
HETATM   10  C10 UNL     1      22.155   3.666  51.924  1.00  0.00     0.158 C 
BRANCH   9  11
HETATM   11  C11 UNL     1      22.634   3.555  49.538  1.00  0.00     0.035 A 
HETATM   12  C12 UNL     1      22.528   2.485  48.662  1.00  0.00     0.029 A 
HETATM   13  C13 UNL     1      22.074   2.712  47.389  1.00  0.00     0.002 A 
HETATM   14  C14 UNL     1      21.716   3.956  46.934  1.00  0.00     0.000 A 
HETATM   15  C15 UNL     1      21.808   5.050  47.782  1.00  0.00     0.002 A 
HETATM   16  C16 UNL     1      22.265   4.789  49.044  1.00  0.00     0.029 A 
ENDBRANCH   9  11
ENDBRANCH   5   9
BRANCH   1  17
HETATM   17  C4  UNL     1      27.520  -0.406  52.744  1.00  0.00     0.010 C 
HETATM   18  C2  UNL     1      28.464  -0.363  53.663  1.00  0.00    -0.087 C 
HETATM   19  C1  UNL     1      29.857  -0.930  53.509  1.00  0.00     0.043 C 
HETATM   20  C3  UNL     1      28.231   0.276  54.992  1.00  0.00     0.043 C 
ENDBRANCH   1  17
TORSDOF 3
ENDMDL
MODEL 6
REMARK VINA RESULT:      -6.9      1.709      7.054
REMARK  3 active torsions:
REMARK  status: ('A' for Active; 'I' for Inactive)
REMARK    1  A    between atoms: C4_4  and  C5_5 
REMARK    2  A    between atoms: C9_9  and  N1_10 
REMARK    3  A    between atoms: N1_10  and  C11_12 
ROOT
HETATM    1  C5  UNL     1      21.038   0.284  52.053  1.00  0.00    -0.037 C 
HETATM    2  C6  UNL     1      20.353  -0.644  53.008  1.00  0.00     0.050 C 
HETATM    3  C7  UNL     1      22.354   0.501  52.180  1.00  0.00     0.049 A 
HETATM    4  C8  UNL     1      23.079  -0.179  53.257  1.00  0.00     0.138 A 
HETATM    5  C9  UNL     1      24.533   0.206  53.185  1.00  0.00     0.113 A 
HETATM    6  N2  UNL     1      25.042   1.010  52.314  1.00  0.00    -0.228 NA
HETATM    7  C17 UNL     1      24.252   1.629  51.306  1.00  0.00     0.235 A 
HETATM    8  N3  UNL     1      22.991   1.378  51.261  1.00  0.00    -0.246 NA
ENDROOT
BRANCH   5   9
HETATM    9  N1  UNL     1      25.281  -0.446  54.222  1.00  0.00    -0.339 N 
HETATM   10  C10 UNL     1      24.767  -1.069  55.421  1.00  0.00     0.158 C 
BRANCH   9  11
HETATM   11  C11 UNL     1      26.700  -0.486  54.058  1.00  0.00     0.035 A 
HETATM   12  C12 UNL     1      27.288  -1.374  53.169  1.00  0.00     0.029 A 
HETATM   13  C13 UNL     1      28.652  -1.380  53.041  1.00  0.00     0.002 A 
HETATM   14  C14 UNL     1      29.473  -0.544  53.755  1.00  0.00     0.000 A 
HETATM   15  C15 UNL     1      28.921   0.358  54.653  1.00  0.00     0.002 A 
HETATM   16  C16 UNL     1      27.557   0.337  54.756  1.00  0.00     0.029 A 
ENDBRANCH   9  11
ENDBRANCH   5   9
BRANCH   1  17
HETATM   17  C4  UNL     1      20.307   0.961  50.981  1.00  0.00     0.010 C 
HETATM   18  C2  UNL     1      19.640   2.088  50.827  1.00  0.00    -0.087 C 
HETATM   19  C1  UNL     1      18.965   2.534  49.551  1.00  0.00     0.043 C 
HETATM   20  C3  UNL     1      19.487   3.062  51.948  1.00  0.00     0.043 C 
ENDBRANCH   1  17
TORSDOF 3
ENDMDL
MODEL 7
REMARK VINA RESULT:      -6.9      2.977      5.896
REMARK  3 active torsions:
REMARK  status: ('A' for Active; 'I' for Inactive)
REMARK    1  A    between atoms: C4_4  and  C5_5 
REMARK    2  A    between atoms: C9_9  and  N1_10 
REMARK    3  A    between atoms: N1_10  and  C11_12 
ROOT
HETATM    1  C5  UNL     1      21.914   1.320  51.452  1.00  0.00    -0.037 C 
HETATM    2  C6  UNL     1      21.503   0.693  50.157  1.00  0.00     0.050 C 
HETATM    3  C7  UNL     1      22.559   2.494  51.437  1.00  0.00     0.049 A 
HETATM    4  C8  UNL     1      22.841   3.125  50.144  1.00  0.00     0.138 A 
HETATM    5  C9  UNL     1      23.549   4.432  50.384  1.00  0.00     0.113 A 
HETATM    6  N2  UNL     1      23.857   4.904  51.545  1.00  0.00    -0.228 NA
HETATM    7  C17 UNL     1      23.544   4.212  52.747  1.00  0.00     0.235 A 
HETATM    8  N3  UNL     1      22.936   3.081  52.675  1.00  0.00    -0.246 NA
ENDROOT
BRANCH   5   9
HETATM    9  N1  UNL     1      23.839   5.087  49.139  1.00  0.00    -0.339 N 
HETATM   10  C10 UNL     1      22.902   5.475  48.109  1.00  0.00     0.158 C 
BRANCH   9  11
HETATM   11  C11 UNL     1      25.211   5.392  48.882  1.00  0.00     0.035 A 
HETATM   12  C12 UNL     1      25.591   6.660  48.466  1.00  0.00     0.029 A 
HETATM   13  C13 UNL     1      26.917   6.911  48.230  1.00  0.00     0.002 A 
HETATM   14  C14 UNL     1      27.897   5.963  48.387  1.00  0.00     0.000 A 
HETATM   15  C15 UNL     1      27.554   4.685  48.803  1.00  0.00     0.002 A 
HETATM   16  C16 UNL     1      26.223   4.468  49.028  1.00  0.00     0.029 A 
ENDBRANCH   9  11
ENDBRANCH   5   9
BRANCH   1  17
HETATM   17  C4  UNL     1      21.631   0.683  52.739  1.00  0.00     0.010 C 
HETATM   18  C2  UNL     1      22.257  -0.115  53.582  1.00  0.00    -0.087 C 
HETATM   19  C1  UNL     1      21.686  -0.628  54.884  1.00  0.00     0.043 C 
HETATM   20  C3  UNL     1      23.641  -0.602  53.312  1.00  0.00     0.043 C 
ENDBRANCH   1  17
TORSDOF 3
ENDMDL
MODEL 8
REMARK VINA RESULT:      -6.3      3.250      6.045
REMARK  3 active torsions:
REMARK  status: ('A' for Active; 'I' for Inactive)
REMARK    1  A    between atoms: C4_4  and  C5_5 
REMARK    2  A    between atoms: C9_9  and  N1_10 
REMARK    3  A    between atoms: N1_10  and  C11_12 
ROOT
HETATM    1  C5  UNL     1      25.703   5.520  49.691  1.00  0.00    -0.037 C 
HETATM    2  C6  UNL     1      26.637   4.580  48.995  1.00  0.00     0.050 C 
HETATM    3  C7  UNL     1      24.531   5.060  50.151  1.00  0.00     0.049 A 
HETATM    4  C8  UNL     1      24.203   3.646  49.952  1.00  0.00     0.138 A 
HETATM    5  C9  UNL     1      22.857   3.367  50.566  1.00  0.00     0.113 A 
HETATM    6  N2  UNL     1      22.121   4.242  51.161  1.00  0.00    -0.228 NA
HETATM    7  C17 UNL     1      22.524   5.599  51.300  1.00  0.00     0.235 A 
HETATM    8  N3  UNL     1      23.660   5.963  50.818  1.00  0.00    -0.246 NA
ENDROOT
BRANCH   5   9
HETATM    9  N1  UNL     1      22.501   1.986  50.398  1.00  0.00    -0.339 N 
HETATM   10  C10 UNL     1      21.937   1.358  49.225  1.00  0.00     0.158 C 
BRANCH   9  11
HETATM   11  C11 UNL     1      22.727   1.127  51.517  1.00  0.00     0.035 A 
HETATM   12  C12 UNL     1      21.732   0.275  51.972  1.00  0.00     0.029 A 
HETATM   13  C13 UNL     1      21.990  -0.532  53.049  1.00  0.00     0.002 A 
HETATM   14  C14 UNL     1      23.194  -0.540  53.706  1.00  0.00     0.000 A 
HETATM   15  C15 UNL     1      24.214   0.298  53.279  1.00  0.00     0.002 A 
HETATM   16  C16 UNL     1      23.923   1.091  52.203  1.00  0.00     0.029 A 
ENDBRANCH   9  11
ENDBRANCH   5   9
BRANCH   1  17
HETATM   17  C4  UNL     1      26.036   6.933  49.884  1.00  0.00     0.010 C 
HETATM   18  C2  UNL     1      26.184   8.003  49.129  1.00  0.00    -0.087 C 
HETATM   19  C1  UNL     1      26.547   9.381  49.632  1.00  0.00     0.043 C 
HETATM   20  C3  UNL     1      25.999   7.945  47.649  1.00  0.00     0.043 C 
ENDBRANCH   1  17
TORSDOF 3
ENDMDL
MODEL 9
REMARK VINA RESULT:      -6.3      2.783      6.033
REMARK  3 active torsions:
REMARK  status: ('A' for Active; 'I' for Inactive)
REMARK    1  A    between atoms: C4_4  and  C5_5 
REMARK    2  A    between atoms: C9_9  and  N1_10 
REMARK    3  A    between atoms: N1_10  and  C11_12 
ROOT
HETATM    1  C5  UNL     1      23.024   3.925  49.176  1.00  0.00    -0.037 C 
HETATM    2  C6  UNL     1      23.002   2.791  48.200  1.00  0.00     0.050 C 
HETATM    3  C7  UNL     1      23.336   3.682  50.456  1.00  0.00     0.049 A 
HETATM    4  C8  UNL     1      23.643   2.306  50.858  1.00  0.00     0.138 A 
HETATM    5  C9  UNL     1      23.978   2.290  52.325  1.00  0.00     0.113 A 
HETATM    6  N2  UNL     1      23.983   3.326  53.094  1.00  0.00    -0.228 NA
HETATM    7  C17 UNL     1      23.663   4.625  52.611  1.00  0.00     0.235 A 
HETATM    8  N3  UNL     1      23.361   4.771  51.370  1.00  0.00    -0.246 NA
ENDROOT
BRANCH   5   9
HETATM    9  N1  UNL     1      24.293   0.957  52.757  1.00  0.00    -0.339 N 
HETATM   10  C10 UNL     1      25.552   0.260  52.618  1.00  0.00     0.158 C 
BRANCH   9  11
HETATM   11  C11 UNL     1      23.245   0.230  53.399  1.00  0.00     0.035 A 
HETATM   12  C12 UNL     1      23.531  -0.758  54.331  1.00  0.00     0.029 A 
HETATM   13  C13 UNL     1      22.496  -1.432  54.924  1.00  0.00     0.002 A 
HETATM   14  C14 UNL     1      21.178  -1.177  54.640  1.00  0.00     0.000 A 
HETATM   15  C15 UNL     1      20.853  -0.196  53.714  1.00  0.00     0.002 A 
HETATM   16  C16 UNL     1      21.909   0.456  53.141  1.00  0.00     0.029 A 
ENDBRANCH   9  11
ENDBRANCH   5   9
BRANCH   1  17
HETATM   17  C4  UNL     1      22.713   5.296  48.769  1.00  0.00     0.010 C 
HETATM   18  C2  UNL     1      23.385   6.379  48.430  1.00  0.00    -0.087 C 
HETATM   19  C1  UNL     1      22.765   7.703  48.044  1.00  0.00     0.043 C 
HETATM   20  C3  UNL     1      24.877   6.393  48.395  1.00  0.00     0.043 C 
ENDBRANCH   1  17
TORSDOF 3
ENDMDL
