MODEL 1
REMARK VINA RESULT:      -7.8      0.000      0.000
REMARK  7 active torsions:
REMARK  status: ('A' for Active; 'I' for Inactive)
REMARK    1  A    between atoms: O1_2  and  C2_3 
REMARK    2  A    between atoms: C5_6  and  C6_7 
REMARK    3  A    between atoms: C6_7  and  C7_8 
REMARK    4  A    between atoms: C8_9  and  C9_10 
REMARK    5  A    between atoms: N1_16  and  N2_17 
REMARK    6  A    between atoms: N2_17  and  C15_18 
REMARK    7  A    between atoms: C15_18  and  N3_19 
ROOT
HETATM    1  C6  UNL     1      25.563   1.169  52.010  1.00  0.00     0.087 C 
HETATM    2  N1  UNL     1      26.749   0.727  51.842  1.00  0.00    -0.172 NA
ENDROOT
BRANCH   1   3
HETATM    3  C5  UNL     1      24.275   0.833  52.593  1.00  0.00    -0.006 A 
HETATM    4  C4  UNL     1      24.005  -0.200  53.458  1.00  0.00     0.016 A 
HETATM    5  C3  UNL     1      22.729  -0.342  53.888  1.00  0.00     0.037 A 
HETATM    6  C2  UNL     1      21.678   0.464  53.529  1.00  0.00     0.068 A 
HETATM    7  C17 UNL     1      21.961   1.492  52.662  1.00  0.00     0.037 A 
HETATM    8  C16 UNL     1      23.246   1.660  52.212  1.00  0.00     0.016 A 
BRANCH   6   9
HETATM    9  O1  UNL     1      20.387   0.276  53.997  1.00  0.00    -0.356 OA
HETATM   10  C1  UNL     1      19.446  -0.481  53.271  1.00  0.00     0.210 C 
ENDBRANCH   6   9
ENDBRANCH   1   3
BRANCH   1  11
HETATM   11  C7  UNL     1      25.665   2.459  51.339  1.00  0.00     0.035 C 
HETATM   12  C8  UNL     1      26.186   2.902  50.209  1.00  0.00     0.014 C 
BRANCH  12  13
HETATM   13  C9  UNL     1      26.288   4.186  49.542  1.00  0.00    -0.036 A 
HETATM   14  C10 UNL     1      25.150   4.964  49.514  1.00  0.00     0.011 A 
HETATM   15  C11 UNL     1      25.297   6.173  48.872  1.00  0.00     0.001 A 
HETATM   16  C12 UNL     1      26.488   6.554  48.310  1.00  0.00     0.000 A 
HETATM   17  C13 UNL     1      27.604   5.769  48.348  1.00  0.00     0.001 A 
HETATM   18  C14 UNL     1      27.496   4.550  48.984  1.00  0.00     0.011 A 
ENDBRANCH  12  13
ENDBRANCH   1  11
BRANCH   2  19
HETATM   19  N2  UNL     1      27.131  -0.498  52.322  1.00  0.00    -0.253 N 
HETATM   20  H13 UNL     1      27.192  -1.541  52.298  1.00  0.00     0.191 HD
BRANCH  19  21
HETATM   21  C15 UNL     1      27.830  -0.110  53.514  1.00  0.00     0.185 C 
HETATM   22  S1  UNL     1      29.209   0.656  53.950  1.00  0.00    -0.040 SA
BRANCH  21  23
HETATM   23  N3  UNL     1      27.519  -0.282  54.913  1.00  0.00    -0.375 N 
HETATM   24  H14 UNL     1      27.980  -0.733  55.735  1.00  0.00     0.158 HD
HETATM   25  H15 UNL     1      26.721  -0.000  55.541  1.00  0.00     0.158 HD
ENDBRANCH  21  23
ENDBRANCH  19  21
ENDBRANCH   2  19
TORSDOF 7
ENDMDL
MODEL 2
REMARK VINA RESULT:      -7.7      4.019      7.258
REMARK  7 active torsions:
REMARK  status: ('A' for Active; 'I' for Inactive)
REMARK    1  A    between atoms: O1_2  and  C2_3 
REMARK    2  A    between atoms: C5_6  and  C6_7 
REMARK    3  A    between atoms: C6_7  and  C7_8 
REMARK    4  A    between atoms: C8_9  and  C9_10 
REMARK    5  A    between atoms: N1_16  and  N2_17 
REMARK    6  A    between atoms: N2_17  and  C15_18 
REMARK    7  A    between atoms: C15_18  and  N3_19 
ROOT
HETATM    1  C6  UNL     1      23.644   1.871  52.580  1.00  0.00     0.087 C 
HETATM    2  N1  UNL     1      23.294   3.093  52.696  1.00  0.00    -0.172 NA
ENDROOT
BRANCH   1   3
HETATM    3  C5  UNL     1      24.793   0.984  52.664  1.00  0.00    -0.006 A 
HETATM    4  C4  UNL     1      25.916   1.011  51.873  1.00  0.00     0.016 A 
HETATM    5  C3  UNL     1      26.878   0.090  52.117  1.00  0.00     0.037 A 
HETATM    6  C2  UNL     1      26.823  -0.874  53.093  1.00  0.00     0.068 A 
HETATM    7  C17 UNL     1      25.693  -0.890  53.876  1.00  0.00     0.037 A 
HETATM    8  C16 UNL     1      24.703   0.033  53.651  1.00  0.00     0.016 A 
BRANCH   6   9
HETATM    9  O1  UNL     1      27.836  -1.796  53.302  1.00  0.00    -0.356 OA
HETATM   10  C1  UNL     1      29.185  -1.398  53.388  1.00  0.00     0.210 C 
ENDBRANCH   6   9
ENDBRANCH   1   3
BRANCH   1  11
HETATM   11  C7  UNL     1      22.364   1.260  52.245  1.00  0.00     0.035 C 
HETATM   12  C8  UNL     1      21.277   0.910  52.908  1.00  0.00     0.014 C 
BRANCH  12  13
HETATM   13  C9  UNL     1      20.004   0.302  52.573  1.00  0.00    -0.036 A 
HETATM   14  C10 UNL     1      19.420   0.695  51.388  1.00  0.00     0.011 A 
HETATM   15  C11 UNL     1      18.214   0.090  51.113  1.00  0.00     0.001 A 
HETATM   16  C12 UNL     1      17.654  -0.828  51.965  1.00  0.00     0.000 A 
HETATM   17  C13 UNL     1      18.248  -1.203  53.135  1.00  0.00     0.001 A 
HETATM   18  C14 UNL     1      19.459  -0.619  53.444  1.00  0.00     0.011 A 
ENDBRANCH  12  13
ENDBRANCH   1  11
BRANCH   2  19
HETATM   19  N2  UNL     1      24.199   4.071  53.014  1.00  0.00    -0.253 N 
HETATM   20  H13 UNL     1      25.049   4.447  53.491  1.00  0.00     0.191 HD
BRANCH  19  21
HETATM   21  C15 UNL     1      23.665   5.179  52.273  1.00  0.00     0.185 C 
HETATM   22  S1  UNL     1      22.356   5.545  51.362  1.00  0.00    -0.040 SA
BRANCH  21  23
HETATM   23  N3  UNL     1      24.158   6.516  52.050  1.00  0.00    -0.375 N 
HETATM   24  H14 UNL     1      23.976   7.277  51.357  1.00  0.00     0.158 HD
HETATM   25  H15 UNL     1      24.860   7.142  52.524  1.00  0.00     0.158 HD
ENDBRANCH  21  23
ENDBRANCH  19  21
ENDBRANCH   2  19
TORSDOF 7
ENDMDL
MODEL 3
REMARK VINA RESULT:      -7.6      3.059      5.516
REMARK  7 active torsions:
REMARK  status: ('A' for Active; 'I' for Inactive)
REMARK    1  A    between atoms: O1_2  and  C2_3 
REMARK    2  A    between atoms: C5_6  and  C6_7 
REMARK    3  A    between atoms: C6_7  and  C7_8 
REMARK    4  A    between atoms: C8_9  and  C9_10 
REMARK    5  A    between atoms: N1_16  and  N2_17 
REMARK    6  A    between atoms: N2_17  and  C15_18 
REMARK    7  A    between atoms: C15_18  and  N3_19 
ROOT
HETATM    1  C6  UNL     1      23.616   1.301  52.984  1.00  0.00     0.087 C 
HETATM    2  N1  UNL     1      24.149   2.441  52.768  1.00  0.00    -0.172 NA
ENDROOT
BRANCH   1   3
HETATM    3  C5  UNL     1      22.336   0.618  53.054  1.00  0.00    -0.006 A 
HETATM    4  C4  UNL     1      21.258   0.797  52.221  1.00  0.00     0.016 A 
HETATM    5  C3  UNL     1      20.150   0.056  52.460  1.00  0.00     0.037 A 
HETATM    6  C2  UNL     1      20.014  -0.863  53.471  1.00  0.00     0.068 A 
HETATM    7  C17 UNL     1      21.099  -1.031  54.297  1.00  0.00     0.037 A 
HETATM    8  C16 UNL     1      22.235  -0.294  54.077  1.00  0.00     0.016 A 
BRANCH   6   9
HETATM    9  O1  UNL     1      18.856  -1.597  53.674  1.00  0.00    -0.356 OA
HETATM   10  C1  UNL     1      17.623  -1.190  53.124  1.00  0.00     0.210 C 
ENDBRANCH   6   9
ENDBRANCH   1   3
BRANCH   1  11
HETATM   11  C7  UNL     1      24.806   0.498  53.235  1.00  0.00     0.035 C 
HETATM   12  C8  UNL     1      25.930   0.239  52.591  1.00  0.00     0.014 C 
BRANCH  12  13
HETATM   13  C9  UNL     1      27.113  -0.561  52.842  1.00  0.00    -0.036 A 
HETATM   14  C10 UNL     1      27.013  -1.913  52.596  1.00  0.00     0.011 A 
HETATM   15  C11 UNL     1      28.162  -2.630  52.848  1.00  0.00     0.001 A 
HETATM   16  C12 UNL     1      29.304  -2.027  53.309  1.00  0.00     0.000 A 
HETATM   17  C13 UNL     1      29.383  -0.686  53.548  1.00  0.00     0.001 A 
HETATM   18  C14 UNL     1      28.252   0.066  53.305  1.00  0.00     0.011 A 
ENDBRANCH  12  13
ENDBRANCH   1  11
BRANCH   2  19
HETATM   19  N2  UNL     1      23.389   3.544  52.479  1.00  0.00    -0.253 N 
HETATM   20  H13 UNL     1      22.564   4.175  52.595  1.00  0.00     0.191 HD
BRANCH  19  21
HETATM   21  C15 UNL     1      24.179   4.148  51.443  1.00  0.00     0.185 C 
HETATM   22  S1  UNL     1      25.016   3.709  50.107  1.00  0.00    -0.040 SA
BRANCH  21  23
HETATM   23  N3  UNL     1      24.553   5.518  51.192  1.00  0.00    -0.375 N 
HETATM   24  H14 UNL     1      25.244   6.193  51.591  1.00  0.00     0.158 HD
HETATM   25  H15 UNL     1      24.241   6.266  50.519  1.00  0.00     0.158 HD
ENDBRANCH  21  23
ENDBRANCH  19  21
ENDBRANCH   2  19
TORSDOF 7
ENDMDL
MODEL 4
REMARK VINA RESULT:      -7.5      3.725      7.016
REMARK  7 active torsions:
REMARK  status: ('A' for Active; 'I' for Inactive)
REMARK    1  A    between atoms: O1_2  and  C2_3 
REMARK    2  A    between atoms: C5_6  and  C6_7 
REMARK    3  A    between atoms: C6_7  and  C7_8 
REMARK    4  A    between atoms: C8_9  and  C9_10 
REMARK    5  A    between atoms: N1_16  and  N2_17 
REMARK    6  A    between atoms: N2_17  and  C15_18 
REMARK    7  A    between atoms: C15_18  and  N3_19 
ROOT
HETATM    1  C6  UNL     1      24.372   2.440  52.066  1.00  0.00     0.087 C 
HETATM    2  N1  UNL     1      24.179   3.506  51.391  1.00  0.00    -0.172 NA
ENDROOT
BRANCH   1   3
HETATM    3  C5  UNL     1      25.413   1.630  52.677  1.00  0.00    -0.006 A 
HETATM    4  C4  UNL     1      25.952   1.788  53.931  1.00  0.00     0.016 A 
HETATM    5  C3  UNL     1      26.920   0.921  54.311  1.00  0.00     0.037 A 
HETATM    6  C2  UNL     1      27.411  -0.106  53.544  1.00  0.00     0.068 A 
HETATM    7  C17 UNL     1      26.863  -0.252  52.292  1.00  0.00     0.037 A 
HETATM    8  C16 UNL     1      25.880   0.612  51.881  1.00  0.00     0.016 A 
BRANCH   6   9
HETATM    9  O1  UNL     1      28.405  -0.967  53.980  1.00  0.00    -0.356 OA
HETATM   10  C1  UNL     1      29.768  -0.695  53.744  1.00  0.00     0.210 C 
ENDBRANCH   6   9
ENDBRANCH   1   3
BRANCH   1  11
HETATM   11  C7  UNL     1      23.002   1.964  52.204  1.00  0.00     0.035 C 
HETATM   12  C8  UNL     1      22.378   0.809  52.053  1.00  0.00     0.014 C 
BRANCH  12  13
HETATM   13  C9  UNL     1      21.014   0.337  52.191  1.00  0.00    -0.036 A 
HETATM   14  C10 UNL     1      20.698  -0.321  53.360  1.00  0.00     0.011 A 
HETATM   15  C11 UNL     1      19.392  -0.748  53.444  1.00  0.00     0.001 A 
HETATM   16  C12 UNL     1      18.492  -0.529  52.433  1.00  0.00     0.000 A 
HETATM   17  C13 UNL     1      18.824   0.125  51.282  1.00  0.00     0.001 A 
HETATM   18  C14 UNL     1      20.124   0.569  51.162  1.00  0.00     0.011 A 
ENDBRANCH  12  13
ENDBRANCH   1  11
BRANCH   2  19
HETATM   19  N2  UNL     1      25.220   4.312  51.012  1.00  0.00    -0.253 N 
HETATM   20  H13 UNL     1      26.212   4.507  50.749  1.00  0.00     0.191 HD
BRANCH  19  21
HETATM   21  C15 UNL     1      24.561   5.586  50.951  1.00  0.00     0.185 C 
HETATM   22  S1  UNL     1      23.797   6.536  49.860  1.00  0.00    -0.040 SA
BRANCH  21  23
HETATM   23  N3  UNL     1      24.314   6.592  51.956  1.00  0.00    -0.375 N 
HETATM   24  H14 UNL     1      23.655   6.704  52.759  1.00  0.00     0.158 HD
HETATM   25  H15 UNL     1      24.727   7.532  52.189  1.00  0.00     0.158 HD
ENDBRANCH  21  23
ENDBRANCH  19  21
ENDBRANCH   2  19
TORSDOF 7
ENDMDL
MODEL 5
REMARK VINA RESULT:      -7.3      3.645      5.158
REMARK  7 active torsions:
REMARK  status: ('A' for Active; 'I' for Inactive)
REMARK    1  A    between atoms: O1_2  and  C2_3 
REMARK    2  A    between atoms: C5_6  and  C6_7 
REMARK    3  A    between atoms: C6_7  and  C7_8 
REMARK    4  A    between atoms: C8_9  and  C9_10 
REMARK    5  A    between atoms: N1_16  and  N2_17 
REMARK    6  A    between atoms: N2_17  and  C15_18 
REMARK    7  A    between atoms: C15_18  and  N3_19 
ROOT
HETATM    1  C6  UNL     1      25.419   2.449  51.167  1.00  0.00     0.087 C 
HETATM    2  N1  UNL     1      24.225   2.714  50.804  1.00  0.00    -0.172 NA
ENDROOT
BRANCH   1   3
HETATM    3  C5  UNL     1      26.215   1.489  51.914  1.00  0.00    -0.006 A 
HETATM    4  C4  UNL     1      25.975   0.143  52.046  1.00  0.00     0.016 A 
HETATM    5  C3  UNL     1      26.843  -0.580  52.791  1.00  0.00     0.037 A 
HETATM    6  C2  UNL     1      27.949  -0.076  53.431  1.00  0.00     0.068 A 
HETATM    7  C17 UNL     1      28.176   1.272  53.292  1.00  0.00     0.037 A 
HETATM    8  C16 UNL     1      27.312   2.029  52.541  1.00  0.00     0.016 A 
BRANCH   6   9
HETATM    9  O1  UNL     1      28.808  -0.859  54.185  1.00  0.00    -0.356 OA
HETATM   10  C1  UNL     1      30.134  -1.100  53.772  1.00  0.00     0.210 C 
ENDBRANCH   6   9
ENDBRANCH   1   3
BRANCH   1  11
HETATM   11  C7  UNL     1      26.132   3.568  50.564  1.00  0.00     0.035 C 
HETATM   12  C8  UNL     1      26.227   4.092  49.356  1.00  0.00     0.014 C 
BRANCH  12  13
HETATM   13  C9  UNL     1      26.938   5.205  48.757  1.00  0.00    -0.036 A 
HETATM   14  C10 UNL     1      28.283   5.027  48.513  1.00  0.00     0.011 A 
HETATM   15  C11 UNL     1      28.913   6.110  47.943  1.00  0.00     0.001 A 
HETATM   16  C12 UNL     1      28.239   7.268  47.650  1.00  0.00     0.000 A 
HETATM   17  C13 UNL     1      26.906   7.426  47.900  1.00  0.00     0.001 A 
HETATM   18  C14 UNL     1      26.240   6.361  48.470  1.00  0.00     0.011 A 
ENDBRANCH  12  13
ENDBRANCH   1  11
BRANCH   2  19
HETATM   19  N2  UNL     1      23.173   1.907  51.153  1.00  0.00    -0.253 N 
HETATM   20  H13 UNL     1      22.717   0.988  51.344  1.00  0.00     0.191 HD
BRANCH  19  21
HETATM   21  C15 UNL     1      22.147   2.887  51.371  1.00  0.00     0.185 C 
HETATM   22  S1  UNL     1      20.727   3.039  52.170  1.00  0.00    -0.040 SA
BRANCH  21  23
HETATM   23  N3  UNL     1      21.994   4.242  50.902  1.00  0.00    -0.375 N 
HETATM   24  H14 UNL     1      22.183   4.755  50.011  1.00  0.00     0.158 HD
HETATM   25  H15 UNL     1      21.639   5.142  51.320  1.00  0.00     0.158 HD
ENDBRANCH  21  23
ENDBRANCH  19  21
ENDBRANCH   2  19
TORSDOF 7
ENDMDL
MODEL 6
REMARK VINA RESULT:      -7.2      3.584      6.413
REMARK  7 active torsions:
REMARK  status: ('A' for Active; 'I' for Inactive)
REMARK    1  A    between atoms: O1_2  and  C2_3 
REMARK    2  A    between atoms: C5_6  and  C6_7 
REMARK    3  A    between atoms: C6_7  and  C7_8 
REMARK    4  A    between atoms: C8_9  and  C9_10 
REMARK    5  A    between atoms: N1_16  and  N2_17 
REMARK    6  A    between atoms: N2_17  and  C15_18 
REMARK    7  A    between atoms: C15_18  and  N3_19 
ROOT
HETATM    1  C6  UNL     1      23.598   1.281  52.388  1.00  0.00     0.087 C 
HETATM    2  N1  UNL     1      22.731   0.473  52.863  1.00  0.00    -0.172 NA
ENDROOT
BRANCH   1   3
HETATM    3  C5  UNL     1      23.738   2.538  51.672  1.00  0.00    -0.006 A 
HETATM    4  C4  UNL     1      23.946   2.702  50.324  1.00  0.00     0.016 A 
HETATM    5  C3  UNL     1      24.049   3.967  49.853  1.00  0.00     0.037 A 
HETATM    6  C2  UNL     1      23.964   5.106  50.616  1.00  0.00     0.068 A 
HETATM    7  C17 UNL     1      23.756   4.928  51.963  1.00  0.00     0.037 A 
HETATM    8  C16 UNL     1      23.647   3.656  52.466  1.00  0.00     0.016 A 
BRANCH   6   9
HETATM    9  O1  UNL     1      24.077   6.381  50.085  1.00  0.00    -0.356 OA
HETATM   10  C1  UNL     1      25.143   7.232  50.440  1.00  0.00     0.210 C 
ENDBRANCH   6   9
ENDBRANCH   1   3
BRANCH   1  11
HETATM   11  C7  UNL     1      24.829   0.591  52.753  1.00  0.00     0.035 C 
HETATM   12  C8  UNL     1      26.117   0.760  52.517  1.00  0.00     0.014 C 
BRANCH  12  13
HETATM   13  C9  UNL     1      27.341   0.072  52.881  1.00  0.00    -0.036 A 
HETATM   14  C10 UNL     1      27.347  -1.300  52.746  1.00  0.00     0.011 A 
HETATM   15  C11 UNL     1      28.530  -1.907  53.102  1.00  0.00     0.001 A 
HETATM   16  C12 UNL     1      29.606  -1.187  53.555  1.00  0.00     0.000 A 
HETATM   17  C13 UNL     1      29.580   0.171  53.682  1.00  0.00     0.001 A 
HETATM   18  C14 UNL     1      28.411   0.816  53.333  1.00  0.00     0.011 A 
ENDBRANCH  12  13
ENDBRANCH   1  11
BRANCH   2  19
HETATM   19  N2  UNL     1      21.387   0.718  52.751  1.00  0.00    -0.253 N 
HETATM   20  H13 UNL     1      20.552   1.248  52.415  1.00  0.00     0.191 HD
BRANCH  19  21
HETATM   21  C15 UNL     1      20.855  -0.358  53.539  1.00  0.00     0.185 C 
HETATM   22  S1  UNL     1      21.388  -1.615  54.441  1.00  0.00    -0.040 SA
BRANCH  21  23
HETATM   23  N3  UNL     1      19.501  -0.750  53.846  1.00  0.00    -0.375 N 
HETATM   24  H14 UNL     1      18.918  -0.822  54.710  1.00  0.00     0.158 HD
HETATM   25  H15 UNL     1      18.676  -1.086  53.285  1.00  0.00     0.158 HD
ENDBRANCH  21  23
ENDBRANCH  19  21
ENDBRANCH   2  19
TORSDOF 7
ENDMDL
MODEL 7
REMARK VINA RESULT:      -7.2      4.465      7.722
REMARK  7 active torsions:
REMARK  status: ('A' for Active; 'I' for Inactive)
REMARK    1  A    between atoms: O1_2  and  C2_3 
REMARK    2  A    between atoms: C5_6  and  C6_7 
REMARK    3  A    between atoms: C6_7  and  C7_8 
REMARK    4  A    between atoms: C8_9  and  C9_10 
REMARK    5  A    between atoms: N1_16  and  N2_17 
REMARK    6  A    between atoms: N2_17  and  C15_18 
REMARK    7  A    between atoms: C15_18  and  N3_19 
ROOT
HETATM    1  C6  UNL     1      25.608   3.530  50.061  1.00  0.00     0.087 C 
HETATM    2  N1  UNL     1      24.496   2.913  50.173  1.00  0.00    -0.172 NA
ENDROOT
BRANCH   1   3
HETATM    3  C5  UNL     1      26.214   4.734  49.517  1.00  0.00    -0.006 A 
HETATM    4  C4  UNL     1      25.708   6.010  49.575  1.00  0.00     0.016 A 
HETATM    5  C3  UNL     1      26.434   6.999  49.001  1.00  0.00     0.037 A 
HETATM    6  C2  UNL     1      27.638   6.831  48.363  1.00  0.00     0.068 A 
HETATM    7  C17 UNL     1      28.131   5.549  48.312  1.00  0.00     0.037 A 
HETATM    8  C16 UNL     1      27.417   4.528  48.886  1.00  0.00     0.016 A 
BRANCH   6   9
HETATM    9  O1  UNL     1      28.342   7.878  47.790  1.00  0.00    -0.356 OA
HETATM   10  C1  UNL     1      29.200   8.692  48.557  1.00  0.00     0.210 C 
ENDBRANCH   6   9
ENDBRANCH   1   3
BRANCH   1  11
HETATM   11  C7  UNL     1      26.493   2.604  50.756  1.00  0.00     0.035 C 
HETATM   12  C8  UNL     1      26.406   1.826  51.821  1.00  0.00     0.014 C 
BRANCH  12  13
HETATM   13  C9  UNL     1      27.288   0.905  52.512  1.00  0.00    -0.036 A 
HETATM   14  C10 UNL     1      26.991  -0.436  52.407  1.00  0.00     0.011 A 
HETATM   15  C11 UNL     1      27.857  -1.271  53.079  1.00  0.00     0.001 A 
HETATM   16  C12 UNL     1      28.923  -0.785  53.792  1.00  0.00     0.000 A 
HETATM   17  C13 UNL     1      29.200   0.548  53.883  1.00  0.00     0.001 A 
HETATM   18  C14 UNL     1      28.355   1.415  53.222  1.00  0.00     0.011 A 
ENDBRANCH  12  13
ENDBRANCH   1  11
BRANCH   2  19
HETATM   19  N2  UNL     1      23.337   3.426  49.649  1.00  0.00    -0.253 N 
HETATM   20  H13 UNL     1      22.655   3.615  48.881  1.00  0.00     0.191 HD
BRANCH  19  21
HETATM   21  C15 UNL     1      22.763   4.031  50.817  1.00  0.00     0.185 C 
HETATM   22  S1  UNL     1      22.131   5.466  51.286  1.00  0.00    -0.040 SA
BRANCH  21  23
HETATM   23  N3  UNL     1      22.512   3.521  52.143  1.00  0.00    -0.375 N 
HETATM   24  H14 UNL     1      21.872   3.764  52.933  1.00  0.00     0.158 HD
HETATM   25  H15 UNL     1      22.903   2.737  52.728  1.00  0.00     0.158 HD
ENDBRANCH  21  23
ENDBRANCH  19  21
ENDBRANCH   2  19
TORSDOF 7
ENDMDL
MODEL 8
REMARK VINA RESULT:      -7.2      3.349      5.403
REMARK  7 active torsions:
REMARK  status: ('A' for Active; 'I' for Inactive)
REMARK    1  A    between atoms: O1_2  and  C2_3 
REMARK    2  A    between atoms: C5_6  and  C6_7 
REMARK    3  A    between atoms: C6_7  and  C7_8 
REMARK    4  A    between atoms: C8_9  and  C9_10 
REMARK    5  A    between atoms: N1_16  and  N2_17 
REMARK    6  A    between atoms: N2_17  and  C15_18 
REMARK    7  A    between atoms: C15_18  and  N3_19 
ROOT
HETATM    1  C6  UNL     1      24.015   2.712  51.333  1.00  0.00     0.087 C 
HETATM    2  N1  UNL     1      24.565   3.809  50.979  1.00  0.00    -0.172 NA
ENDROOT
BRANCH   1   3
HETATM    3  C5  UNL     1      22.775   1.959  51.244  1.00  0.00    -0.006 A 
HETATM    4  C4  UNL     1      22.169   1.500  50.100  1.00  0.00     0.016 A 
HETATM    5  C3  UNL     1      21.009   0.814  50.236  1.00  0.00     0.037 A 
HETATM    6  C2  UNL     1      20.386   0.539  51.428  1.00  0.00     0.068 A 
HETATM    7  C17 UNL     1      21.003   1.006  52.564  1.00  0.00     0.037 A 
HETATM    8  C16 UNL     1      22.179   1.703  52.456  1.00  0.00     0.016 A 
BRANCH   6   9
HETATM    9  O1  UNL     1      19.197  -0.167  51.514  1.00  0.00    -0.356 OA
HETATM   10  C1  UNL     1      18.667  -0.564  52.758  1.00  0.00     0.210 C 
ENDBRANCH   6   9
ENDBRANCH   1   3
BRANCH   1  11
HETATM   11  C7  UNL     1      25.107   2.098  52.076  1.00  0.00     0.035 C 
HETATM   12  C8  UNL     1      26.132   1.317  51.784  1.00  0.00     0.014 C 
BRANCH  12  13
HETATM   13  C9  UNL     1      27.218   0.706  52.525  1.00  0.00    -0.036 A 
HETATM   14  C10 UNL     1      28.123   1.558  53.120  1.00  0.00     0.011 A 
HETATM   15  C11 UNL     1      29.135   0.931  53.813  1.00  0.00     0.001 A 
HETATM   16  C12 UNL     1      29.220  -0.435  53.890  1.00  0.00     0.000 A 
HETATM   17  C13 UNL     1      28.314  -1.263  53.294  1.00  0.00     0.001 A 
HETATM   18  C14 UNL     1      27.284  -0.671  52.592  1.00  0.00     0.011 A 
ENDBRANCH  12  13
ENDBRANCH   1  11
BRANCH   2  19
HETATM   19  N2  UNL     1      23.890   4.741  50.234  1.00  0.00    -0.253 N 
HETATM   20  H13 UNL     1      23.208   5.049  49.506  1.00  0.00     0.191 HD
BRANCH  19  21
HETATM   21  C15 UNL     1      24.445   5.955  50.764  1.00  0.00     0.185 C 
HETATM   22  S1  UNL     1      25.386   7.203  50.279  1.00  0.00    -0.040 SA
BRANCH  21  23
HETATM   23  N3  UNL     1      24.351   6.569  52.065  1.00  0.00    -0.375 N 
HETATM   24  H14 UNL     1      24.846   6.468  52.981  1.00  0.00     0.158 HD
HETATM   25  H15 UNL     1      23.749   7.319  52.496  1.00  0.00     0.158 HD
ENDBRANCH  21  23
ENDBRANCH  19  21
ENDBRANCH   2  19
TORSDOF 7
ENDMDL
MODEL 9
REMARK VINA RESULT:      -7.1      3.474      5.700
REMARK  7 active torsions:
REMARK  status: ('A' for Active; 'I' for Inactive)
REMARK    1  A    between atoms: O1_2  and  C2_3 
REMARK    2  A    between atoms: C5_6  and  C6_7 
REMARK    3  A    between atoms: C6_7  and  C7_8 
REMARK    4  A    between atoms: C8_9  and  C9_10 
REMARK    5  A    between atoms: N1_16  and  N2_17 
REMARK    6  A    between atoms: N2_17  and  C15_18 
REMARK    7  A    between atoms: C15_18  and  N3_19 
ROOT
HETATM    1  C6  UNL     1      25.303   3.564  50.566  1.00  0.00     0.087 C 
HETATM    2  N1  UNL     1      26.100   4.135  49.748  1.00  0.00    -0.172 NA
ENDROOT
BRANCH   1   3
HETATM    3  C5  UNL     1      23.958   3.637  51.111  1.00  0.00    -0.006 A 
HETATM    4  C4  UNL     1      23.400   4.691  51.794  1.00  0.00     0.016 A 
HETATM    5  C3  UNL     1      22.122   4.556  52.222  1.00  0.00     0.037 A 
HETATM    6  C2  UNL     1      21.335   3.448  52.028  1.00  0.00     0.068 A 
HETATM    7  C17 UNL     1      21.905   2.402  51.344  1.00  0.00     0.037 A 
HETATM    8  C16 UNL     1      23.198   2.512  50.899  1.00  0.00     0.016 A 
BRANCH   6   9
HETATM    9  O1  UNL     1      20.030   3.359  52.487  1.00  0.00    -0.356 OA
HETATM   10  C1  UNL     1      18.936   3.380  51.598  1.00  0.00     0.210 C 
ENDBRANCH   6   9
ENDBRANCH   1   3
BRANCH   1  11
HETATM   11  C7  UNL     1      26.155   2.489  51.056  1.00  0.00     0.035 C 
HETATM   12  C8  UNL     1      26.650   2.128  52.226  1.00  0.00     0.014 C 
BRANCH  12  13
HETATM   13  C9  UNL     1      27.498   1.057  52.713  1.00  0.00    -0.036 A 
HETATM   14  C10 UNL     1      27.051  -0.230  52.511  1.00  0.00     0.011 A 
HETATM   15  C11 UNL     1      27.891  -1.212  52.989  1.00  0.00     0.001 A 
HETATM   16  C12 UNL     1      29.073  -0.911  53.614  1.00  0.00     0.000 A 
HETATM   17  C13 UNL     1      29.499   0.372  53.805  1.00  0.00     0.001 A 
HETATM   18  C14 UNL     1      28.684   1.382  53.338  1.00  0.00     0.011 A 
ENDBRANCH  12  13
ENDBRANCH   1  11
BRANCH   2  19
HETATM   19  N2  UNL     1      25.719   5.237  49.027  1.00  0.00    -0.253 N 
HETATM   20  H13 UNL     1      25.022   5.876  48.584  1.00  0.00     0.191 HD
BRANCH  19  21
HETATM   21  C15 UNL     1      26.999   5.811  48.724  1.00  0.00     0.185 C 
HETATM   22  S1  UNL     1      27.622   7.164  48.045  1.00  0.00    -0.040 SA
BRANCH  21  23
HETATM   23  N3  UNL     1      28.344   5.336  48.940  1.00  0.00    -0.375 N 
HETATM   24  H14 UNL     1      28.786   4.425  49.197  1.00  0.00     0.158 HD
HETATM   25  H15 UNL     1      29.304   5.769  48.903  1.00  0.00     0.158 HD
ENDBRANCH  21  23
ENDBRANCH  19  21
ENDBRANCH   2  19
TORSDOF 7
ENDMDL
