ROOT
HETATM    1  F1  UNL     1      21.886  -0.962  55.281  1.00  0.00    -0.205 F 
HETATM    2  C1  UNL     1      21.469  -0.284  54.193  1.00  0.00     0.135 A 
HETATM    3  C2  UNL     1      20.266   0.296  53.871  1.00  0.00     0.053 A 
HETATM    4  C3  UNL     1      20.261   0.868  52.631  1.00  0.00    -0.031 A 
HETATM    5  C4  UNL     1      21.237   0.959  51.659  1.00  0.00     0.011 A 
HETATM    6  C5  UNL     1      22.468   0.396  51.921  1.00  0.00     0.024 A 
HETATM    7  C6  UNL     1      22.351  -0.133  53.180  1.00  0.00     0.056 A 
HETATM    8  C7  UNL     1      23.692  -0.421  53.282  1.00  0.00    -0.063 C 
HETATM    9  C8  UNL     1      24.811  -0.640  53.367  1.00  0.00    -0.090 C 
HETATM   10  C9  UNL     1      26.220  -0.890  53.469  1.00  0.00     0.172 C 
HETATM   11  S1  UNL     1      26.974   0.515  54.402  1.00  0.00    -0.128 SA
HETATM   12  C10 UNL     1      26.645   2.039  53.467  1.00  0.00     0.062 C 
HETATM   13  C11 UNL     1      25.403   2.500  53.733  1.00  0.00     0.094 C 
HETATM   14  N1  UNL     1      24.608   3.605  53.322  1.00  0.00    -0.375 N 
HETATM   15  C12 UNL     1      23.855   4.224  52.299  1.00  0.00     0.087 C 
HETATM   16  C13 UNL     1      22.558   4.035  52.135  1.00  0.00     0.019 C 
HETATM   17  C14 UNL     1      21.265   4.218  51.499  1.00  0.00     0.025 C 
HETATM   18  C15 UNL     1      19.957   3.913  51.469  1.00  0.00     0.135 C 
HETATM   19  O1  UNL     1      19.522   3.043  52.422  1.00  0.00    -0.359 OA
HETATM   20  C16 UNL     1      19.074   1.699  52.171  1.00  0.00     0.213 C 
HETATM   21  H8  UNL     1      24.387   4.434  53.955  1.00  0.00     0.164 HD
ENDROOT
TORSDOF 0
ENDMDL
