ROOT
HETATM    1  N2  UNL     1      23.477   0.747  52.189  1.00  0.00    -0.370 N 
HETATM    2  H9  UNL     1      24.043   0.364  51.420  1.00  0.00     0.161 HD
ENDROOT
BRANCH   1   3
HETATM    3  C5  UNL     1      23.545   2.182  52.422  1.00  0.00     0.150 C 
BRANCH   3   4
HETATM    4  C4  UNL     1      24.949   2.643  52.558  1.00  0.00     0.017 C 
BRANCH   4   5
HETATM    5  C3  UNL     1      25.686   2.191  53.587  1.00  0.00     0.142 C 
BRANCH   5   6
HETATM    6  O1  UNL     1      26.550   1.718  54.595  1.00  0.00    -0.304 OA
BRANCH   6   7
HETATM    7  C2  UNL     1      27.017   0.411  54.454  1.00  0.00     0.171 C 
HETATM    8  C14 UNL     1      28.341   0.529  54.522  1.00  0.00     0.092 C 
HETATM    9  C15 UNL     1      29.306   1.645  54.697  1.00  0.00     0.081 C 
BRANCH   7  10
HETATM   10  N1  UNL     1      26.219  -0.771  54.277  1.00  0.00    -0.373 N 
HETATM   11  C1  UNL     1      26.273  -1.312  52.924  1.00  0.00     0.148 C 
HETATM   12  H4  UNL     1      25.655  -1.196  55.050  1.00  0.00     0.161 HD
ENDBRANCH   7  10
BRANCH   8  13
HETATM   13  O2  UNL     1      28.946  -0.713  54.394  1.00  0.00    -0.356 OA
HETATM   14  C16 UNL     1      29.922  -1.001  53.416  1.00  0.00     0.209 C 
ENDBRANCH   8  13
ENDBRANCH   6   7
ENDBRANCH   5   6
ENDBRANCH   4   5
ENDBRANCH   3   4
ENDBRANCH   1   3
BRANCH   1  15
HETATM   15  C6  UNL     1      22.629  -0.013  53.045  1.00  0.00     0.137 A 
HETATM   16  N3  UNL     1      23.103  -0.612  54.150  1.00  0.00    -0.224 NA
HETATM   17  C7  UNL     1      22.341  -1.339  54.987  1.00  0.00     0.235 A 
HETATM   18  N4  UNL     1      21.026  -1.515  54.764  1.00  0.00    -0.241 NA
HETATM   19  C8  UNL     1      20.472  -0.945  53.674  1.00  0.00     0.072 A 
HETATM   20  C9  UNL     1      19.124  -1.116  53.430  1.00  0.00     0.034 A 
HETATM   21  C13 UNL     1      21.281  -0.209  52.840  1.00  0.00     0.040 A 
HETATM   22  C10 UNL     1      18.539  -0.540  52.318  1.00  0.00     0.026 A 
HETATM   23  C11 UNL     1      19.340   0.205  51.467  1.00  0.00     0.035 A 
HETATM   24 CL1  UNL     1      18.520   0.903  50.077  1.00  0.00    -0.084 Cl
HETATM   25  C12 UNL     1      20.682   0.346  51.755  1.00  0.00     0.041 A 
ENDBRANCH   1  15
TORSDOF 8
ENDMDL
