ROOT
HETATM    1  C4  UNL     1      25.136   2.719  51.889  1.00  0.00     0.039 C 
HETATM    2  C5  UNL     1      26.314   2.555  50.978  1.00  0.00     0.079 C 
HETATM    3  C6  UNL     1      26.054   3.186  49.658  1.00  0.00     0.129 C 
HETATM    4  N1  UNL     1      25.976   4.603  49.586  1.00  0.00    -0.379 N 
HETATM    5  C13 UNL     1      24.859   5.155  50.274  1.00  0.00     0.146 C 
HETATM    6  C14 UNL     1      23.546   4.783  49.719  1.00  0.00     0.251 C 
HETATM    7  N2  UNL     1      22.732   4.192  50.565  1.00  0.00    -0.297 NA
HETATM    8  C15 UNL     1      23.188   3.967  51.918  1.00  0.00     0.168 C 
HETATM    9  N3  UNL     1      24.138   3.393  52.625  1.00  0.00    -0.255 NA
ENDROOT
BRANCH   1  10
HETATM   10  C3  UNL     1      24.456   1.671  52.425  1.00  0.00     0.064 C 
BRANCH  10  11
HETATM   11  C2  UNL     1      23.506   0.768  53.050  1.00  0.00     0.076 C 
HETATM   12  C16 UNL     1      22.215   0.394  53.137  1.00  0.00     0.087 C 
HETATM   13  I1  UNL     1      22.000  -1.173  54.507  1.00  0.00    -0.054 I 
BRANCH  11  14
HETATM   14  O1  UNL     1      24.553   0.189  53.770  1.00  0.00    -0.355 OA
HETATM   15  C1  UNL     1      25.533  -0.553  53.078  1.00  0.00     0.210 C 
ENDBRANCH  11  14
ENDBRANCH  10  11
ENDBRANCH   1  10
BRANCH   4  16
HETATM   16  C7  UNL     1      26.948   5.383  48.890  1.00  0.00     0.030 A 
HETATM   17  C8  UNL     1      26.675   6.642  48.403  1.00  0.00     0.029 A 
HETATM   18  C9  UNL     1      27.563   7.462  47.717  1.00  0.00     0.002 A 
HETATM   19  C10 UNL     1      28.858   6.976  47.493  1.00  0.00     0.000 A 
HETATM   20  C11 UNL     1      29.173   5.736  47.959  1.00  0.00     0.002 A 
HETATM   21  C12 UNL     1      28.235   5.009  48.618  1.00  0.00     0.029 A 
ENDBRANCH   4  16
TORSDOF 4
ENDMDL
