ROOT
HETATM    1  C6  UNL     1      24.439   0.304  53.572  1.00  0.00     0.032 A 
HETATM    2  C7  UNL     1      24.418   1.536  52.951  1.00  0.00     0.018 A 
HETATM    3  C8  UNL     1      23.212   1.976  52.391  1.00  0.00     0.025 A 
HETATM    4  C9  UNL     1      22.052   1.231  52.432  1.00  0.00     0.064 A 
HETATM    5  C17 UNL     1      22.091   0.000  53.056  1.00  0.00     0.025 A 
HETATM    6  C18 UNL     1      23.282  -0.445  53.617  1.00  0.00     0.018 A 
ENDROOT
BRANCH   4   7
HETATM    7  S1  UNL     1      20.621   1.911  51.687  1.00  0.00     0.206 S 
HETATM    8  O2  UNL     1      19.549   0.879  51.642  1.00  0.00    -0.217 OA
HETATM    9  O3  UNL     1      20.101   3.047  52.556  1.00  0.00    -0.217 OA
BRANCH   7  10
HETATM   10  C10 UNL     1      20.971   2.585  50.116  1.00  0.00     0.064 A 
HETATM   11  C11 UNL     1      20.808   3.949  49.851  1.00  0.00     0.025 A 
HETATM   12  C12 UNL     1      21.097   4.457  48.585  1.00  0.00     0.016 A 
HETATM   13  C13 UNL     1      21.534   3.533  47.670  1.00  0.00     0.002 A 
HETATM   14  C15 UNL     1      21.716   2.182  47.868  1.00  0.00     0.016 A 
HETATM   15  C16 UNL     1      21.416   1.713  49.145  1.00  0.00     0.025 A 
BRANCH  13  16
HETATM   16  C14 UNL     1      21.853   4.002  46.329  1.00  0.00     0.269 C 
HETATM   17  O4  UNL     1      22.145   3.470  45.234  1.00  0.00    -0.301 OA
ENDBRANCH  13  16
ENDBRANCH   7  10
ENDBRANCH   4   7
BRANCH   1  18
HETATM   18  C5  UNL     1      25.706  -0.130  54.147  1.00  0.00     0.251 C 
HETATM   19  N1  UNL     1      26.874   0.672  54.263  1.00  0.00    -0.357 N 
HETATM   20  H10 UNL     1      26.774   1.656  53.892  1.00  0.00     0.162 HD
HETATM   21  O1  UNL     1      25.777  -1.311  54.576  1.00  0.00    -0.268 OA
BRANCH  19  22
HETATM   22  C4  UNL     1      28.109   0.202  54.840  1.00  0.00     0.123 C 
BRANCH  22  23
HETATM   23  C3  UNL     1      29.337   0.598  54.049  1.00  0.00     0.019 C 
BRANCH  23  24
HETATM   24  C2  UNL     1      30.061  -0.607  53.489  1.00  0.00    -0.003 C 
HETATM   25  C1  UNL     1      29.173  -1.803  53.364  1.00  0.00     0.005 C 
ENDBRANCH  23  24
ENDBRANCH  22  23
ENDBRANCH  19  22
ENDBRANCH   1  18
TORSDOF 7
ENDMDL
