ROOT
HETATM    1  C10 UNL     1      24.430   2.277  53.041  1.00  0.00     0.178 C 
ENDROOT
BRANCH   1   2
HETATM    2  N2  UNL     1      23.120   1.678  52.861  1.00  0.00    -0.295 N 
HETATM    3  N1  UNL     1      21.910   2.112  52.516  1.00  0.00    -0.292 N 
HETATM    4  C1  UNL     1      21.348   3.420  52.155  1.00  0.00     0.178 C 
HETATM    5  C2  UNL     1      21.401   0.872  52.629  1.00  0.00     0.077 A 
HETATM    6  C9  UNL     1      22.654   0.421  52.987  1.00  0.00     0.142 A 
BRANCH   5   7
HETATM    7  C3  UNL     1      20.122   0.198  52.469  1.00  0.00    -0.005 C 
HETATM    8  C4  UNL     1      19.588  -0.560  53.424  1.00  0.00     0.014 C 
HETATM    9  C5  UNL     1      18.300  -1.218  53.219  1.00  0.00     0.014 C 
HETATM   10  C6  UNL     1      17.595  -0.749  52.220  1.00  0.00    -0.014 C 
HETATM   11  C7  UNL     1      18.120  -0.167  51.212  1.00  0.00    -0.013 C 
HETATM   12  C8  UNL     1      19.346   0.309  51.259  1.00  0.00     0.027 C 
ENDBRANCH   5   7
ENDBRANCH   1   2
BRANCH   1  13
HETATM   13  C11 UNL     1      25.427   1.234  53.345  1.00  0.00     0.028 C 
HETATM   14  C12 UNL     1      26.699   1.314  53.687  1.00  0.00     0.074 A 
HETATM   15  N3  UNL     1      27.305   2.593  53.809  1.00  0.00    -0.277 N 
HETATM   16  C15 UNL     1      27.377   0.043  53.911  1.00  0.00     0.055 A 
HETATM   17  N4  UNL     1      28.667   2.530  54.179  1.00  0.00    -0.187 NA
HETATM   18  H11 UNL     1      26.833   3.493  53.651  1.00  0.00     0.189 HD
HETATM   19  C13 UNL     1      29.289   1.419  54.383  1.00  0.00     0.141 A 
HETATM   20  C14 UNL     1      28.659   0.088  54.257  1.00  0.00     0.052 A 
BRANCH  16  21
HETATM   21  N5  UNL     1      26.737  -1.212  53.780  1.00  0.00    -0.397 N 
HETATM   22  H14 UNL     1      25.852  -1.287  53.234  1.00  0.00     0.156 HD
HETATM   23  H15 UNL     1      27.042  -2.150  54.177  1.00  0.00     0.156 HD
ENDBRANCH  16  21
ENDBRANCH   1  13
TORSDOF 4
ENDMDL
