ROOT
HETATM    1  C7  UNL     1      22.587   1.446  50.879  1.00  0.00     0.029 A 
HETATM    2  C8  UNL     1      21.247   1.058  50.997  1.00  0.00     0.031 A 
HETATM    3  C9  UNL     1      20.923   0.254  52.069  1.00  0.00     0.035 A 
HETATM    4  C10 UNL     1      21.866  -0.144  52.975  1.00  0.00     0.070 A 
HETATM    5  N2  UNL     1      21.487  -0.948  53.980  1.00  0.00    -0.241 NA
HETATM    6  C11 UNL     1      22.422  -1.342  54.834  1.00  0.00     0.234 A 
HETATM    7  N3  UNL     1      23.685  -0.955  54.700  1.00  0.00    -0.240 NA
HETATM    8  C12 UNL     1      24.179  -0.159  53.745  1.00  0.00     0.081 A 
HETATM    9  C18 UNL     1      23.192   0.209  52.907  1.00  0.00     0.025 A 
HETATM   10  C19 UNL     1      23.476   1.006  51.828  1.00  0.00     0.045 A 
ENDROOT
BRANCH   1  11
HETATM   11  N1  UNL     1      22.960   2.258  49.800  1.00  0.00    -0.385 N 
HETATM   12  H12 UNL     1      23.966   2.527  49.716  1.00  0.00     0.160 HD
BRANCH  11  13
HETATM   13  C5  UNL     1      22.106   2.769  48.781  1.00  0.00     0.085 C 
HETATM   14  C6  UNL     1      22.477   2.066  47.465  1.00  0.00     0.032 C 
BRANCH  13  15
HETATM   15  C4  UNL     1      22.278   4.277  48.549  1.00  0.00     0.117 C 
BRANCH  15  16
HETATM   16  C3  UNL     1      22.187   4.901  49.920  1.00  0.00     0.214 C 
HETATM   17  O2  UNL     1      21.061   4.826  50.443  1.00  0.00    -0.283 OA
BRANCH  16  18
HETATM   18  S1  UNL     1      23.601   5.674  50.693  1.00  0.00     0.068 SA
BRANCH  18  19
HETATM   19  O1  UNL     1      24.867   4.551  50.937  1.00  0.00    -0.313 OA
BRANCH  19  20
HETATM   20  C2  UNL     1      25.772   4.659  49.907  1.00  0.00     0.181 C 
HETATM   21  C1  UNL     1      26.388   3.318  49.564  1.00  0.00     0.035 C 
ENDBRANCH  19  20
ENDBRANCH  18  19
ENDBRANCH  16  18
ENDBRANCH  15  16
ENDBRANCH  13  15
ENDBRANCH  11  13
ENDBRANCH   1  11
BRANCH   8  22
HETATM   22  C13 UNL     1      25.563   0.170  53.704  1.00  0.00    -0.007 A 
HETATM   23  C14 UNL     1      26.369   1.183  53.765  1.00  0.00     0.027 A 
HETATM   24  C15 UNL     1      27.811   0.902  53.650  1.00  0.00     0.281 A 
HETATM   25  C16 UNL     1      27.809  -0.574  53.476  1.00  0.00     0.026 A 
HETATM   26 BR1  UNL     1      29.422  -1.542  53.259  1.00  0.00    -0.053 Br
HETATM   27  C17 UNL     1      26.559  -0.910  53.516  1.00  0.00     0.030 A 
BRANCH  24  28
HETATM   28  N4  UNL     1      28.443   1.285  54.914  1.00  0.00     0.091 N 
HETATM   29  H18 UNL     1      28.861   2.238  54.851  1.00  0.00     0.314 HD
HETATM   30  H19 UNL     1      27.762   1.191  55.707  1.00  0.00     0.314 HD
ENDBRANCH  24  28
ENDBRANCH   8  22
TORSDOF 9
ENDMDL
