ROOT
HETATM    1  C14 UNL     1      19.640   1.676  51.987  1.00  0.00     0.067 C 
HETATM    2  N2  UNL     1      20.409   1.330  52.970  1.00  0.00    -0.173 NA
HETATM    3  N3  UNL     1      21.422   0.450  52.631  1.00  0.00    -0.236 N 
HETATM    4  C24 UNL     1      21.128   0.130  51.217  1.00  0.00     0.151 C 
HETATM    5  C25 UNL     1      19.599   0.312  51.390  1.00  0.00     0.094 C 
ENDROOT
BRANCH   3   6
HETATM    6  C15 UNL     1      22.505  -0.061  53.399  1.00  0.00     0.190 A 
HETATM    7  N4  UNL     1      23.699  -0.024  53.344  1.00  0.00    -0.222 NA
HETATM    8  C16 UNL     1      24.537  -0.580  54.179  1.00  0.00     0.076 A 
HETATM    9  C23 UNL     1      23.842  -1.318  55.291  1.00  0.00     0.086 A 
HETATM   10  S1  UNL     1      22.112  -1.050  54.888  1.00  0.00    -0.060 SA
BRANCH   8  11
HETATM   11  C17 UNL     1      25.981  -0.501  54.062  1.00  0.00    -0.007 A 
HETATM   12  C18 UNL     1      26.762   0.208  54.938  1.00  0.00     0.014 A 
HETATM   13  C19 UNL     1      28.134   0.281  54.824  1.00  0.00     0.001 A 
HETATM   14  C20 UNL     1      28.803  -0.362  53.811  1.00  0.00     0.000 A 
HETATM   15  C21 UNL     1      28.027  -1.078  52.925  1.00  0.00     0.001 A 
HETATM   16  C22 UNL     1      26.668  -1.135  53.059  1.00  0.00     0.014 A 
ENDBRANCH   8  11
ENDBRANCH   3   6
BRANCH   4  17
HETATM   17  C4  UNL     1      21.574   1.270  50.377  1.00  0.00    -0.032 A 
HETATM   18  C3  UNL     1      20.871   1.719  49.252  1.00  0.00     0.012 A 
HETATM   19  C2  UNL     1      21.399   2.708  48.411  1.00  0.00     0.038 A 
HETATM   20  C1  UNL     1      22.645   3.289  48.650  1.00  0.00     0.074 A 
HETATM   21  C6  UNL     1      23.344   2.860  49.746  1.00  0.00     0.002 A 
HETATM   22  C5  UNL     1      22.769   1.904  50.524  1.00  0.00     0.021 A 
BRANCH  20  23
HETATM   23  O1  UNL     1      23.231   4.267  47.865  1.00  0.00    -0.360 OA
HETATM   24  H1  UNL     1      23.994   4.783  48.328  1.00  0.00     0.217 HD
ENDBRANCH  20  23
BRANCH  21  25
HETATM   25  C7  UNL     1      24.771   3.207  50.076  1.00  0.00     0.140 C 
HETATM   26  C8  UNL     1      24.852   3.149  51.610  1.00  0.00     0.003 C 
HETATM   27  C9  UNL     1      23.867   3.550  52.474  1.00  0.00    -0.001 C 
HETATM   28  C10 UNL     1      22.802   4.619  52.527  1.00  0.00     0.013 C 
HETATM   29  C11 UNL     1      22.628   5.574  51.567  1.00  0.00    -0.009 C 
HETATM   30  C12 UNL     1      23.771   6.461  51.118  1.00  0.00     0.030 C 
HETATM   31  C13 UNL     1      24.759   5.865  50.366  1.00  0.00     0.084 C 
HETATM   32  N1  UNL     1      25.064   4.599  49.680  1.00  0.00    -0.387 N 
HETATM   33  H11 UNL     1      25.553   4.778  48.798  1.00  0.00     0.159 HD
ENDBRANCH  21  25
ENDBRANCH   4  17
TORSDOF 6
ENDMDL
