ROOT
HETATM    1  C2  UNL     1      26.398   0.375  54.246  1.00  0.00     0.103 A 
HETATM    2  C3  UNL     1      25.275  -0.387  53.944  1.00  0.00     0.072 A 
HETATM    3  C4  UNL     1      24.207   0.208  53.302  1.00  0.00     0.075 A 
HETATM    4  N1  UNL     1      23.092  -0.472  52.982  1.00  0.00    -0.241 NA
HETATM    5  C5  UNL     1      22.053   0.144  52.348  1.00  0.00     0.236 A 
HETATM    6  N2  UNL     1      22.173   1.437  52.053  1.00  0.00    -0.223 NA
HETATM    7  C6  UNL     1      23.266   2.167  52.350  1.00  0.00     0.144 A 
HETATM    8  C13 UNL     1      24.294   1.526  52.986  1.00  0.00     0.042 A 
HETATM    9  C14 UNL     1      25.408   2.274  53.288  1.00  0.00     0.057 A 
HETATM   10  C15 UNL     1      26.508   1.725  53.932  1.00  0.00     0.102 A 
ENDROOT
BRANCH   7  11
HETATM   11  N3  UNL     1      23.235   3.538  51.966  1.00  0.00    -0.335 N 
HETATM   12  C7  UNL     1      22.657   4.652  52.736  1.00  0.00     0.158 C 
BRANCH  11  13
HETATM   13  C8  UNL     1      23.814   3.921  50.702  1.00  0.00     0.048 C 
HETATM   14  C9  UNL     1      23.308   3.934  49.484  1.00  0.00     0.005 C 
HETATM   15  C10 UNL     1      23.897   4.789  48.664  1.00  0.00     0.038 C 
HETATM   16  C11 UNL     1      25.238   4.939  49.254  1.00  0.00     0.037 C 
HETATM   17 CL1  UNL     1      26.688   5.650  48.567  1.00  0.00    -0.084 Cl
HETATM   18  C12 UNL     1      25.188   4.414  50.489  1.00  0.00     0.054 C 
ENDBRANCH  11  13
ENDBRANCH   7  11
BRANCH  10  19
HETATM   19  O2  UNL     1      27.668   2.408  54.272  1.00  0.00    -0.353 OA
HETATM   20  C16 UNL     1      28.694   2.607  53.341  1.00  0.00     0.210 C 
ENDBRANCH  10  19
BRANCH   1  21
HETATM   21  O1  UNL     1      27.454  -0.222  54.883  1.00  0.00    -0.353 OA
HETATM   22  C1  UNL     1      28.585  -0.749  54.250  1.00  0.00     0.210 C 
ENDBRANCH   1  21
TORSDOF 4
ENDMDL
