ROOT
HETATM    1  C1  UNL     1      27.737   0.261  53.150  1.00  0.00     0.010 C 
HETATM    2  C2  UNL     1      26.888   0.708  52.001  1.00  0.00    -0.016 C 
HETATM    3  C3  UNL     1      26.735   2.225  52.144  1.00  0.00     0.034 C 
HETATM    4  C4  UNL     1      26.004   2.857  51.019  1.00  0.00     0.273 C 
HETATM    5  N1  UNL     1      25.293   4.075  51.294  1.00  0.00     0.112 N 
HETATM    6  C5  UNL     1      24.022   3.803  51.973  1.00  0.00     0.368 C 
HETATM    7  C6  UNL     1      24.246   3.348  53.332  1.00  0.00     0.058 C 
HETATM    8  C7  UNL     1      24.264   2.129  52.876  1.00  0.00     0.038 C 
HETATM    9  C8  UNL     1      24.660   0.732  53.122  1.00  0.00     0.049 C 
HETATM   10  C9  UNL     1      23.658  -0.023  53.891  1.00  0.00     0.105 C 
HETATM   11  C10 UNL     1      22.301   0.157  53.514  1.00  0.00    -0.104 C 
HETATM   12  C11 UNL     1      21.195   0.315  53.225  1.00  0.00    -0.087 C 
HETATM   13  C12 UNL     1      19.839   0.522  52.892  1.00  0.00     0.215 C 
HETATM   14  N2  UNL     1      19.655   1.516  51.869  1.00  0.00    -0.373 N 
HETATM   15  C13 UNL     1      20.149   2.774  52.377  1.00  0.00     0.228 C 
HETATM   16  N3  UNL     1      21.171   2.770  51.531  1.00  0.00    -0.143 NA
HETATM   17  N4  UNL     1      21.105   1.592  50.717  1.00  0.00    -0.123 NA
HETATM   18  C14 UNL     1      22.215   1.317  50.115  1.00  0.00     0.242 C 
HETATM   19  N5  UNL     1      23.187   1.319  50.925  1.00  0.00    -0.144 NA
HETATM   20  N6  UNL     1      23.652   2.405  51.615  1.00  0.00    -0.234 N 
HETATM   21  C15 UNL     1      25.480   0.085  52.074  1.00  0.00     0.016 C 
HETATM   22  H9  UNL     1      25.223   4.734  50.516  1.00  0.00     0.319 HD
HETATM   23  H17 UNL     1      19.223   1.414  50.933  1.00  0.00     0.161 HD
ENDROOT
TORSDOF 0
ENDMDL
