ROOT
HETATM    1  C3  UNL     1      22.020   0.095  52.528  1.00  0.00     0.018 A 
HETATM    2  C4  UNL     1      21.053   0.302  51.584  1.00  0.00     0.016 A 
HETATM    3  C5  UNL     1      21.201   1.116  50.492  1.00  0.00     0.003 A 
HETATM    4  C6  UNL     1      22.374   1.769  50.311  1.00  0.00     0.030 A 
HETATM    5  C7  UNL     1      23.395   1.610  51.220  1.00  0.00     0.042 A 
HETATM    6  C8  UNL     1      23.192   0.778  52.302  1.00  0.00    -0.015 A 
HETATM    7  C9  UNL     1      24.065   0.413  53.411  1.00  0.00     0.081 C 
HETATM    8  C10 UNL     1      25.441   0.997  53.356  1.00  0.00     0.250 C 
HETATM    9  C11 UNL     1      26.218   0.647  54.577  1.00  0.00     0.005 C 
HETATM   10  C12 UNL     1      27.475   0.208  54.747  1.00  0.00    -0.027 C 
HETATM   11  C13 UNL     1      28.221   0.045  53.442  1.00  0.00     0.057 C 
HETATM   12  C14 UNL     1      27.164  -0.412  52.458  1.00  0.00     0.277 C 
HETATM   13  N1  UNL     1      26.201   0.616  52.211  1.00  0.00     0.105 N 
HETATM   14  C15 UNL     1      26.863   1.732  51.565  1.00  0.00     0.375 C 
HETATM   15  C16 UNL     1      25.799   2.554  50.934  1.00  0.00     0.250 C 
HETATM   16  O2  UNL     1      26.284   3.664  50.520  1.00  0.00    -0.271 OA
HETATM   17  N2  UNL     1      24.405   2.446  50.667  1.00  0.00    -0.325 N 
HETATM   18  H18 UNL     1      24.055   3.112  49.916  1.00  0.00     0.169 HD
ENDROOT
BRANCH   1  19
HETATM   19  C2  UNL     1      21.743  -0.792  53.648  1.00  0.00     0.156 C 
HETATM   20  C1  UNL     1      21.138  -0.186  54.858  1.00  0.00     0.097 C 
HETATM   21  O1  UNL     1      21.902  -2.015  53.852  1.00  0.00    -0.293 OA
ENDBRANCH   1  19
TORSDOF 1
ENDMDL
