ROOT
HETATM    1  N1  UNL     1      29.760   2.122  54.959  1.00  0.00    -0.191 NA
HETATM    2  C1  UNL     1      29.019   1.390  54.504  1.00  0.00     0.102 C 
HETATM    3  C2  UNL     1      28.096   0.451  53.941  1.00  0.00     0.085 A 
HETATM    4  C3  UNL     1      26.776   0.776  54.056  1.00  0.00     0.055 A 
HETATM    5  C4  UNL     1      25.764  -0.056  53.550  1.00  0.00     0.035 A 
HETATM    6  C15 UNL     1      26.126  -1.246  52.907  1.00  0.00     0.032 A 
HETATM    7  C16 UNL     1      27.477  -1.612  52.772  1.00  0.00     0.046 A 
HETATM    8  C17 UNL     1      28.377  -0.727  53.306  1.00  0.00     0.137 A 
HETATM    9  F1  UNL     1      29.710  -0.957  53.248  1.00  0.00    -0.204 F 
ENDROOT
BRANCH   5  10
HETATM   10  N2  UNL     1      24.382  -0.054  53.540  1.00  0.00    -0.340 N 
HETATM   11  H2  UNL     1      24.427   0.987  53.799  1.00  0.00     0.167 HD
BRANCH  10  12
HETATM   12  C5  UNL     1      22.995  -0.015  53.534  1.00  0.00     0.140 A 
HETATM   13  N3  UNL     1      22.521  -1.185  54.077  1.00  0.00    -0.224 NA
HETATM   14  C6  UNL     1      21.137  -1.179  54.149  1.00  0.00     0.235 A 
HETATM   15  N4  UNL     1      20.362  -0.163  53.738  1.00  0.00    -0.241 NA
HETATM   16  C7  UNL     1      20.798   0.960  53.212  1.00  0.00     0.072 A 
HETATM   17  C8  UNL     1      22.213   1.031  53.105  1.00  0.00     0.040 A 
HETATM   18  C14 UNL     1      20.322   2.241  52.704  1.00  0.00     0.066 C 
HETATM   19  C9  UNL     1      22.839   2.242  52.548  1.00  0.00     0.212 C 
HETATM   20  O1  UNL     1      22.411   2.766  51.408  1.00  0.00    -0.384 OA
HETATM   21  C10 UNL     1      22.454   2.290  50.186  1.00  0.00     0.194 C 
HETATM   22  C11 UNL     1      21.795   1.102  49.677  1.00  0.00     0.194 C 
HETATM   23  O2  UNL     1      20.481   0.926  49.658  1.00  0.00    -0.383 OA
HETATM   24  C12 UNL     1      19.788   0.877  50.793  1.00  0.00     0.231 C 
HETATM   25  C13 UNL     1      19.817   2.189  51.497  1.00  0.00     0.069 C 
BRANCH  25  26
HETATM   26  O3  UNL     1      19.417   3.455  51.184  1.00  0.00    -0.363 OA
HETATM   27  H12 UNL     1      18.690   3.631  50.509  1.00  0.00     0.217 HD
ENDBRANCH  25  26
ENDBRANCH  10  12
ENDBRANCH   5  10
TORSDOF 3
ENDMDL
