ROOT
HETATM    1  C7  UNL     1      24.729  -0.400  53.845  1.00  0.00     0.120 C 
HETATM    2  N2  UNL     1      24.581  -0.918  54.923  1.00  0.00    -0.219 NA
HETATM    3  C8  UNL     1      23.138  -1.046  54.831  1.00  0.00     0.137 C 
HETATM    4  N3  UNL     1      21.999  -1.764  55.274  1.00  0.00    -0.263 NA
HETATM    5  C9  UNL     1      20.746  -1.569  54.326  1.00  0.00     0.175 C 
HETATM    6  C10 UNL     1      21.290  -0.681  53.503  1.00  0.00     0.121 A 
HETATM    7  C11 UNL     1      22.389  -1.164  52.478  1.00  0.00     0.067 A 
HETATM    8  C12 UNL     1      22.351   0.097  52.586  1.00  0.00     0.088 A 
HETATM    9  C13 UNL     1      23.351   0.095  53.835  1.00  0.00     0.158 C 
HETATM   10  N4  UNL     1      22.118   1.478  52.463  1.00  0.00    -0.372 N 
HETATM   11  C21 UNL     1      20.615   1.439  52.568  1.00  0.00     0.216 C 
HETATM   12  C22 UNL     1      19.998   0.608  51.546  1.00  0.00     0.063 C 
HETATM   13  O3  UNL     1      20.711   0.650  53.905  1.00  0.00    -0.351 OA
ENDROOT
BRANCH   1  14
HETATM   14  N1  UNL     1      25.267   0.239  52.585  1.00  0.00    -0.344 N 
HETATM   15  H7  UNL     1      25.310   0.552  51.621  1.00  0.00     0.167 HD
BRANCH  14  16
HETATM   16  C6  UNL     1      26.602   0.748  52.963  1.00  0.00     0.036 A 
HETATM   17  C5  UNL     1      26.976   2.055  53.172  1.00  0.00     0.029 A 
HETATM   18  C4  UNL     1      28.268   2.325  53.544  1.00  0.00     0.005 A 
HETATM   19  C3  UNL     1      29.221   1.354  53.722  1.00  0.00     0.037 A 
HETATM   20  C2  UNL     1      28.905   0.027  53.526  1.00  0.00     0.070 A 
HETATM   21  C23 UNL     1      27.587  -0.227  53.148  1.00  0.00     0.066 A 
BRANCH  20  22
HETATM   22  O1  UNL     1      29.783  -1.042  53.678  1.00  0.00    -0.356 OA
HETATM   23  C1  UNL     1      29.398  -2.365  53.320  1.00  0.00     0.210 C 
ENDBRANCH  20  22
ENDBRANCH  14  16
ENDBRANCH   1  14
BRANCH  10  24
HETATM   24  C14 UNL     1      22.935   2.630  52.346  1.00  0.00     0.150 C 
BRANCH  24  25
HETATM   25  C15 UNL     1      23.393   2.905  50.937  1.00  0.00     0.292 C 
BRANCH  25  26
HETATM   26  N5  UNL     1      24.508   3.862  51.030  1.00  0.00     0.098 N 
HETATM   27  C16 UNL     1      23.917   5.058  51.598  1.00  0.00     0.299 C 
HETATM   28  C17 UNL     1      23.419   5.881  50.444  1.00  0.00     0.198 C 
HETATM   29  O2  UNL     1      24.452   6.391  49.664  1.00  0.00    -0.387 OA
HETATM   30  C18 UNL     1      25.534   5.563  49.561  1.00  0.00     0.203 C 
HETATM   31  C19 UNL     1      25.188   4.100  49.805  1.00  0.00     0.242 C 
HETATM   32  C20 UNL     1      26.509   3.357  49.832  1.00  0.00     0.045 C 
ENDBRANCH  25  26
ENDBRANCH  24  25
ENDBRANCH  10  24
TORSDOF 6
ENDMDL
