ROOT
HETATM    1  C8  UNL     1      24.990  -0.491  53.870  1.00  0.00     0.048 C 
HETATM    2  C9  UNL     1      24.336  -0.928  54.916  1.00  0.00     0.109 C 
ENDROOT
BRANCH   2   3
HETATM    3  N1  UNL     1      24.918  -1.143  56.188  1.00  0.00    -0.237 N 
HETATM    4  F1  UNL     1      25.410  -1.267  57.423  1.00  0.00    -0.290 F 
HETATM    5  H11 UNL     1      24.930  -0.782  57.190  1.00  0.00     0.406 HD
ENDBRANCH   2   3
BRANCH   2   6
HETATM    6  C10 UNL     1      22.920  -1.201  54.741  1.00  0.00     0.210 C 
HETATM    7  O3  UNL     1      22.667  -2.017  55.688  1.00  0.00    -0.285 OA
BRANCH   6   8
HETATM    8  C11 UNL     1      21.922  -0.757  53.805  1.00  0.00     0.016 A 
HETATM    9  C12 UNL     1      22.072  -0.155  52.581  1.00  0.00     0.015 A 
HETATM   10  C13 UNL     1      21.048   0.232  51.762  1.00  0.00     0.001 A 
HETATM   11  C14 UNL     1      19.780  -0.018  52.232  1.00  0.00     0.000 A 
HETATM   12  C15 UNL     1      19.554  -0.612  53.439  1.00  0.00     0.001 A 
HETATM   13  C16 UNL     1      20.619  -0.974  54.208  1.00  0.00     0.015 A 
ENDBRANCH   6   8
ENDBRANCH   2   6
BRANCH   1  14
HETATM   14  C7  UNL     1      26.386  -0.129  53.720  1.00  0.00    -0.002 C 
HETATM   15  C2  UNL     1      27.069   1.183  53.913  1.00  0.00     0.293 C 
HETATM   16  O2  UNL     1      28.016   0.981  54.945  1.00  0.00    -0.353 OA
HETATM   17  C3  UNL     1      29.309   0.897  54.425  1.00  0.00     0.198 C 
HETATM   18  C4  UNL     1      29.491  -0.308  53.586  1.00  0.00    -0.001 C 
HETATM   19  C5  UNL     1      28.647  -1.225  53.083  1.00  0.00    -0.001 C 
HETATM   20  C6  UNL     1      27.215  -1.131  53.344  1.00  0.00     0.012 C 
BRANCH  15  21
HETATM   21  O1  UNL     1      27.819   1.526  52.779  1.00  0.00    -0.362 OA
HETATM   22  C1  UNL     1      27.045   2.193  51.837  1.00  0.00     0.205 C 
ENDBRANCH  15  21
ENDBRANCH   1  14
TORSDOF 5
ENDMDL
