ROOT
HETATM    1  C5  UNL     1      24.495   0.009  53.633  1.00  0.00     0.111 C 
HETATM    2  C6  UNL     1      25.692  -0.031  54.075  1.00  0.00     0.097 C 
ENDROOT
BRANCH   1   3
HETATM    3  O2  UNL     1      24.761   0.629  52.425  1.00  0.00    -0.318 OA
BRANCH   3   4
HETATM    4  C3  UNL     1      24.410   1.970  52.122  1.00  0.00     0.262 C 
HETATM    5  C4  UNL     1      23.464   2.049  50.955  1.00  0.00     0.071 C 
BRANCH   4   6
HETATM    6  O1  UNL     1      25.521   2.797  51.979  1.00  0.00    -0.362 OA
BRANCH   6   7
HETATM    7  C2  UNL     1      26.403   2.345  51.030  1.00  0.00     0.166 C 
HETATM    8  C1  UNL     1      26.585   3.279  49.855  1.00  0.00     0.033 C 
ENDBRANCH   6   7
ENDBRANCH   4   6
ENDBRANCH   3   4
ENDBRANCH   1   3
BRANCH   1   9
HETATM    9  C10 UNL     1      23.176  -0.385  54.059  1.00  0.00     0.124 C 
HETATM   10  C11 UNL     1      22.913  -1.365  54.896  1.00  0.00     0.174 C 
HETATM   11  O4  UNL     1      21.580  -1.612  55.199  1.00  0.00    -0.358 OA
HETATM   12  C12 UNL     1      20.651  -1.563  54.134  1.00  0.00     0.201 C 
HETATM   13  C13 UNL     1      20.879  -0.332  53.302  1.00  0.00     0.202 C 
HETATM   14  O5  UNL     1      22.102   0.320  53.551  1.00  0.00    -0.344 OA
ENDBRANCH   1   9
BRANCH   2  15
HETATM   15  C7  UNL     1      27.078   0.185  54.040  1.00  0.00     0.169 A 
HETATM   16  N1  UNL     1      27.640  -0.919  53.655  1.00  0.00    -0.218 NA
HETATM   17  C8  UNL     1      29.060  -0.997  53.525  1.00  0.00     0.232 A 
HETATM   18  N2  UNL     1      29.748   0.041  53.798  1.00  0.00    -0.257 NA
HETATM   19  C9  UNL     1      29.208   1.303  54.232  1.00  0.00     0.327 A 
HETATM   20  O3  UNL     1      27.802   1.302  54.335  1.00  0.00    -0.313 OA
ENDBRANCH   2  15
TORSDOF 6
ENDMDL
