ROOT
HETATM    1  C8  UNL     1      22.123   0.745  52.133  1.00  0.00     0.115 A 
HETATM    2  N2  UNL     1      21.990  -0.111  53.176  1.00  0.00    -0.228 NA
HETATM    3  C9  UNL     1      23.142  -0.339  53.846  1.00  0.00     0.234 A 
HETATM    4  N3  UNL     1      24.273   0.262  53.458  1.00  0.00    -0.249 NA
HETATM    5  C10 UNL     1      24.412   1.093  52.445  1.00  0.00     0.039 A 
HETATM    6  C11 UNL     1      23.232   1.402  51.667  1.00  0.00     0.052 A 
HETATM    7  C12 UNL     1      22.965   2.190  50.614  1.00  0.00     0.065 C 
HETATM    8  C13 UNL     1      22.314   2.871  49.571  1.00  0.00     0.044 C 
HETATM    9  C14 UNL     1      23.028   4.211  49.247  1.00  0.00     0.247 C 
HETATM   10  C15 UNL     1      22.055   5.301  49.494  1.00  0.00     0.203 C 
HETATM   11  O2  UNL     1      22.555   6.587  49.375  1.00  0.00    -0.387 OA
HETATM   12  C16 UNL     1      23.930   6.615  49.441  1.00  0.00     0.198 C 
HETATM   13  C17 UNL     1      24.451   5.621  50.459  1.00  0.00     0.299 C 
HETATM   14  N4  UNL     1      24.236   4.248  50.066  1.00  0.00     0.099 N 
HETATM   15  C18 UNL     1      25.282   3.722  49.249  1.00  0.00     0.294 C 
HETATM   16  C19 UNL     1      26.665   3.696  49.762  1.00  0.00     0.181 C 
HETATM   17  N5  UNL     1      27.070   2.968  50.850  1.00  0.00    -0.268 NA
HETATM   18  C20 UNL     1      26.706   2.187  51.744  1.00  0.00     0.146 C 
HETATM   19  C23 UNL     1      25.757   1.325  52.547  1.00  0.00     0.128 C 
ENDROOT
BRANCH   1  20
HETATM   20  N1  UNL     1      21.061   1.134  51.239  1.00  0.00    -0.352 N 
HETATM   21  H8  UNL     1      21.457   2.024  50.827  1.00  0.00     0.166 HD
BRANCH  20  22
HETATM   22  C7  UNL     1      19.959   0.257  51.235  1.00  0.00     0.111 C 
HETATM   23  C6  UNL     1      18.697   0.606  51.329  1.00  0.00     0.053 A 
HETATM   24  C2  UNL     1      18.435   2.018  51.460  1.00  0.00     0.086 A 
HETATM   25  S1  UNL     1      17.274  -0.450  51.315  1.00  0.00    -0.098 SA
HETATM   26  C3  UNL     1      17.311   2.677  51.576  1.00  0.00     0.039 A 
HETATM   27  C4  UNL     1      16.102   1.911  51.577  1.00  0.00     0.010 A 
HETATM   28  C5  UNL     1      15.848   0.617  51.481  1.00  0.00     0.050 A 
BRANCH  24  29
HETATM   29  O1  UNL     1      19.472   2.952  51.482  1.00  0.00    -0.355 OA
HETATM   30  C1  UNL     1      19.284   4.325  51.174  1.00  0.00     0.210 C 
ENDBRANCH  24  29
ENDBRANCH  20  22
ENDBRANCH   1  20
BRANCH  18  31
HETATM   31  O3  UNL     1      27.887   1.915  52.492  1.00  0.00    -0.331 OA
BRANCH  31  32
HETATM   32  C21 UNL     1      27.973   0.766  53.337  1.00  0.00     0.246 C 
BRANCH  32  33
HETATM   33  C22 UNL     1      29.064   0.840  54.303  1.00  0.00     0.257 C 
HETATM   34  O4  UNL     1      29.192   1.945  54.812  1.00  0.00    -0.305 OA
ENDBRANCH  32  33
ENDBRANCH  31  32
ENDBRANCH  18  31
TORSDOF 6
ENDMDL
