ROOT
HETATM    1  N1  UNL     1      25.311   6.674  50.433  1.00  0.00    -0.191 NA
HETATM    2  C1  UNL     1      25.015   5.602  50.141  1.00  0.00     0.108 C 
HETATM    3  C2  UNL     1      24.629   4.267  49.794  1.00  0.00     0.101 C 
HETATM    4  C3  UNL     1      23.527   4.050  49.031  1.00  0.00    -0.049 C 
HETATM    5  C4  UNL     1      23.105   2.631  48.652  1.00  0.00     0.042 C 
HETATM    6  C5  UNL     1      21.926   2.351  49.577  1.00  0.00     0.040 C 
HETATM    7  C6  UNL     1      21.487   2.830  50.820  1.00  0.00    -0.012 C 
HETATM    8  C7  UNL     1      20.347   3.858  50.750  1.00  0.00     0.174 C 
HETATM    9  O1  UNL     1      20.571   4.620  49.630  1.00  0.00    -0.390 OA
HETATM   10  C8  UNL     1      21.563   5.535  49.596  1.00  0.00     0.172 C 
HETATM   11  C9  UNL     1      22.762   5.259  48.703  1.00  0.00     0.062 C 
HETATM   12  C10 UNL     1      22.335   2.198  51.906  1.00  0.00    -0.004 A 
HETATM   13  C11 UNL     1      22.471   3.523  52.156  1.00  0.00    -0.015 A 
HETATM   14  C12 UNL     1      23.729   3.746  52.744  1.00  0.00     0.001 A 
HETATM   15  C13 UNL     1      24.059   2.414  52.695  1.00  0.00    -0.058 A 
HETATM   16  C14 UNL     1      23.549   1.217  52.302  1.00  0.00     0.034 A 
HETATM   17  C15 UNL     1      22.359   0.868  51.730  1.00  0.00     0.014 A 
HETATM   18  C16 UNL     1      25.554   2.273  53.008  1.00  0.00     0.169 C 
HETATM   19  N2  UNL     1      26.256   2.945  51.903  1.00  0.00    -0.129 NA
HETATM   20  S1  UNL     1      25.414   2.779  50.404  1.00  0.00    -0.004 SA
ENDROOT
BRANCH  19  21
HETATM   21  O2  UNL     1      27.552   2.766  51.853  1.00  0.00    -0.302 OA
HETATM   22  H16 UNL     1      27.809   2.213  51.069  1.00  0.00     0.238 HD
ENDBRANCH  19  21
TORSDOF 1
ENDMDL
