ROOT
HETATM    1  C1  UNL     1      25.310  -0.183  53.359  1.00  0.00     0.057 C 
HETATM    2  C2  UNL     1      25.390   0.740  52.443  1.00  0.00    -0.016 C 
HETATM    3  C3  UNL     1      24.000   1.173  52.460  1.00  0.00     0.071 C 
HETATM    4  C4  UNL     1      23.067   0.435  53.394  1.00  0.00     0.126 C 
HETATM    5  N1  UNL     1      21.743   1.013  53.388  1.00  0.00    -0.384 N 
HETATM    6  C5  UNL     1      20.623   1.221  52.587  1.00  0.00     0.203 C 
HETATM    7  N2  UNL     1      19.565   1.887  52.439  1.00  0.00    -0.246 NA
HETATM    8  C6  UNL     1      18.666   1.701  51.324  1.00  0.00     0.070 C 
HETATM    9  C7  UNL     1      18.251   0.507  51.034  1.00  0.00     0.122 C 
HETATM   10  C8  UNL     1      17.388  -0.110  50.050  1.00  0.00     0.090 C 
HETATM   11  N3  UNL     1      16.701  -0.583  49.274  1.00  0.00    -0.192 NA
HETATM   12  C9  UNL     1      18.411   3.097  50.732  1.00  0.00     0.204 C 
HETATM   13  C10 UNL     1      17.424   3.762  51.595  1.00  0.00     0.077 C 
HETATM   14  N4  UNL     1      16.640   4.286  52.298  1.00  0.00    -0.196 NA
HETATM   15  C11 UNL     1      19.686   3.882  50.877  1.00  0.00     0.100 A 
HETATM   16  N5  UNL     1      20.484   4.736  51.216  1.00  0.00    -0.243 NA
HETATM   17  C12 UNL     1      21.792   4.652  50.909  1.00  0.00     0.075 A 
HETATM   18  C13 UNL     1      22.820   5.459  51.329  1.00  0.00     0.033 A 
HETATM   19  C14 UNL     1      24.110   5.065  50.984  1.00  0.00     0.010 A 
HETATM   20  C15 UNL     1      24.493   3.928  50.246  1.00  0.00    -0.050 A 
HETATM   21  C16 UNL     1      23.419   3.102  49.803  1.00  0.00     0.029 A 
HETATM   22  C17 UNL     1      22.179   3.545  50.182  1.00  0.00     0.036 A 
HETATM   23  S1  UNL     1      20.762   2.606  49.905  1.00  0.00    -0.071 SA
HETATM   24  C18 UNL     1      25.793   3.265  49.884  1.00  0.00     0.103 C 
HETATM   25  C19 UNL     1      26.248   2.236  50.682  1.00  0.00     0.071 C 
HETATM   26  N6  UNL     1      26.505   1.186  51.679  1.00  0.00    -0.395 N 
HETATM   27  H7  UNL     1      21.360   1.476  54.234  1.00  0.00     0.160 HD
HETATM   28  H16 UNL     1      27.406   0.744  51.882  1.00  0.00     0.159 HD
ENDROOT
TORSDOF 0
ENDMDL
