ROOT
HETATM    1  C10 UNL     1      26.545   6.323  49.004  1.00  0.00     0.132 A 
HETATM    2  C11 UNL     1      27.689   5.922  48.150  1.00  0.00     0.000 A 
HETATM    3  C12 UNL     1      28.803   6.481  47.773  1.00  0.00     0.001 A 
HETATM    4  C13 UNL     1      29.126   7.889  48.266  1.00  0.00     0.139 A 
HETATM    5  N3  UNL     1      30.369   7.843  48.972  1.00  0.00    -0.429 NA
HETATM    6  C14 UNL     1      31.156   8.674  49.439  1.00  0.00     0.291 C 
HETATM    7  C15 UNL     1      30.739   9.974  49.260  1.00  0.00     0.007 C 
HETATM    8  C16 UNL     1      30.519  11.229  49.174  1.00  0.00     0.049 C 
HETATM    9  C17 UNL     1      29.852  12.438  48.877  1.00  0.00    -0.004 C 
HETATM   10  C18 UNL     1      28.697  12.745  48.369  1.00  0.00     0.085 C 
HETATM   11  N4  UNL     1      27.744  11.761  47.931  1.00  0.00    -0.361 N 
HETATM   12  C19 UNL     1      27.642  10.736  48.988  1.00  0.00     0.377 C 
HETATM   13  N5  UNL     1      27.649   9.626  49.672  1.00  0.00    -0.375 NA
HETATM   14  C20 UNL     1      28.004   8.397  49.040  1.00  0.00     0.024 A 
HETATM   15  C21 UNL     1      26.856   7.751  49.379  1.00  0.00     0.028 A 
HETATM   16  H25 UNL     1      27.065  11.059  47.623  1.00  0.00     0.166 HD
ENDROOT
BRANCH   1  17
HETATM   17  N2  UNL     1      26.356   5.474  50.129  1.00  0.00    -0.348 N 
HETATM   18  C9  UNL     1      25.379   4.460  50.125  1.00  0.00     0.242 C 
HETATM   19  O2  UNL     1      24.747   4.420  49.027  1.00  0.00    -0.271 OA
HETATM   20  H15 UNL     1      26.898   5.498  51.010  1.00  0.00     0.163 HD
BRANCH  18  21
HETATM   21  C8  UNL     1      24.842   3.414  50.995  1.00  0.00     0.272 C 
BRANCH  21  22
HETATM   22  O1  UNL     1      25.666   2.864  51.930  1.00  0.00    -0.363 OA
BRANCH  22  23
HETATM   23  C7  UNL     1      26.785   2.227  51.461  1.00  0.00     0.293 C 
BRANCH  23  24
HETATM   24  N1  UNL     1      27.391   1.541  52.624  1.00  0.00    -0.363 N 
HETATM   25  C2  UNL     1      27.049   0.240  53.076  1.00  0.00    -0.001 C 
HETATM   26  C1  UNL     1      26.497  -0.544  52.137  1.00  0.00     0.038 C 
HETATM   27  C3  UNL     1      27.373   0.060  54.511  1.00  0.00     0.056 C 
HETATM   28  C4  UNL     1      28.837   0.407  54.663  1.00  0.00     0.007 C 
HETATM   29  C5  UNL     1      29.121   1.836  54.367  1.00  0.00     0.020 C 
HETATM   30  C6  UNL     1      28.377   2.420  53.206  1.00  0.00     0.125 C 
ENDBRANCH  23  24
ENDBRANCH  22  23
ENDBRANCH  21  22
ENDBRANCH  18  21
ENDBRANCH   1  17
TORSDOF 5
ENDMDL
