ROOT
HETATM    1  N2  UNL     1      27.519   2.138  54.151  1.00  0.00    -0.257 NA
HETATM    2  C4  UNL     1      26.596   2.422  53.265  1.00  0.00     0.105 C 
HETATM    3  C5  UNL     1      25.136   2.304  53.514  1.00  0.00     0.127 C 
HETATM    4  C6  UNL     1      24.427   1.611  52.369  1.00  0.00     0.214 C 
HETATM    5  N4  UNL     1      24.864   2.088  51.074  1.00  0.00    -0.259 NA
HETATM    6  C13 UNL     1      26.018   2.646  50.952  1.00  0.00     0.204 C 
HETATM    7  N5  UNL     1      26.982   2.875  51.973  1.00  0.00    -0.339 N 
HETATM    8  H15 UNL     1      27.888   3.330  51.799  1.00  0.00     0.168 HD
ENDROOT
BRANCH   4   9
HETATM    9  N3  UNL     1      22.996   1.838  52.423  1.00  0.00    -0.367 N 
HETATM   10  H10 UNL     1      22.644   2.757  52.129  1.00  0.00     0.161 HD
BRANCH   9  11
HETATM   11  C7  UNL     1      22.087   0.839  52.861  1.00  0.00     0.031 A 
HETATM   12  C8  UNL     1      22.397  -0.098  53.823  1.00  0.00     0.032 A 
HETATM   13  C9  UNL     1      21.537  -1.081  54.270  1.00  0.00     0.046 A 
HETATM   14  C10 UNL     1      20.276  -1.107  53.695  1.00  0.00     0.138 A 
HETATM   15  F1  UNL     1      19.335  -2.037  54.059  1.00  0.00    -0.204 F 
HETATM   16  C11 UNL     1      19.891  -0.192  52.717  1.00  0.00     0.074 A 
HETATM   17 CL1  UNL     1      18.295  -0.245  52.008  1.00  0.00    -0.081 Cl
HETATM   18  C12 UNL     1      20.821   0.770  52.321  1.00  0.00     0.056 A 
ENDBRANCH   9  11
ENDBRANCH   4   9
BRANCH   1  19
HETATM   19  C3  UNL     1      28.923   2.267  53.864  1.00  0.00     0.275 C 
BRANCH  19  20
HETATM   20  N1  UNL     1      29.361   0.995  53.298  1.00  0.00    -0.344 N 
HETATM   21  C2  UNL     1      29.158  -0.214  54.015  1.00  0.00     0.214 C 
HETATM   22  C1  UNL     1      29.601  -1.506  53.440  1.00  0.00     0.117 C 
HETATM   23  O1  UNL     1      28.596  -0.194  55.151  1.00  0.00    -0.274 OA
HETATM   24  H4  UNL     1      29.834   0.907  52.359  1.00  0.00     0.164 HD
ENDBRANCH  19  20
ENDBRANCH   1  19
TORSDOF 4
ENDMDL
