ROOT
HETATM    1  C5  UNL     1      23.852   0.198  53.465  1.00  0.00    -0.023 A 
HETATM    2  C6  UNL     1      22.844   0.319  52.637  1.00  0.00    -0.034 A 
HETATM    3  C7  UNL     1      21.809   0.619  51.603  1.00  0.00    -0.040 A 
HETATM    4  C8  UNL     1      21.541   0.926  50.361  1.00  0.00     0.042 A 
HETATM    5  C9  UNL     1      20.106   1.043  50.142  1.00  0.00     0.085 A 
HETATM    6  N3  UNL     1      19.504   1.328  49.038  1.00  0.00    -0.178 NA
HETATM    7  N4  UNL     1      18.123   1.343  49.253  1.00  0.00    -0.300 N 
HETATM    8  C10 UNL     1      17.790   1.019  50.628  1.00  0.00     0.169 A 
HETATM    9  C17 UNL     1      19.149   0.840  51.222  1.00  0.00    -0.002 A 
HETATM   10  C18 UNL     1      19.570   0.553  52.458  1.00  0.00    -0.004 A 
HETATM   11  C19 UNL     1      20.928   0.420  52.895  1.00  0.00     0.054 A 
HETATM   12  C20 UNL     1      21.742  -0.765  52.976  1.00  0.00     0.054 A 
HETATM   13  C21 UNL     1      22.293  -1.407  54.137  1.00  0.00    -0.016 A 
HETATM   14  C22 UNL     1      23.494  -0.865  54.398  1.00  0.00     0.006 A 
HETATM   15  H11 UNL     1      17.388   1.558  48.525  1.00  0.00     0.183 HD
ENDROOT
BRANCH   1  16
HETATM   16  C4  UNL     1      25.078   1.010  53.448  1.00  0.00     0.311 C 
BRANCH  16  17
HETATM   17  N2  UNL     1      25.998   0.552  52.453  1.00  0.00     0.092 N 
HETATM   18  C3  UNL     1      26.802   1.661  51.926  1.00  0.00     0.275 C 
HETATM   19  C2  UNL     1      27.625   2.310  52.981  1.00  0.00     0.065 C 
HETATM   20  C1  UNL     1      28.588   1.278  53.520  1.00  0.00     0.221 C 
HETATM   21  C24 UNL     1      27.839   0.114  54.065  1.00  0.00     0.065 C 
HETATM   22  C23 UNL     1      26.890  -0.432  53.054  1.00  0.00     0.275 C 
BRANCH  20  23
HETATM   23  N1  UNL     1      29.378   1.948  54.539  1.00  0.00     0.083 N 
HETATM   24  H1  UNL     1      29.416   2.955  54.351  1.00  0.00     0.313 HD
HETATM   25  H2  UNL     1      29.020   1.703  55.485  1.00  0.00     0.313 HD
ENDBRANCH  20  23
ENDBRANCH  16  17
ENDBRANCH   1  16
BRANCH   8  26
HETATM   26  C11 UNL     1      16.985   2.041  51.306  1.00  0.00    -0.027 A 
HETATM   27  C12 UNL     1      17.419   3.354  51.224  1.00  0.00     0.010 A 
HETATM   28  C13 UNL     1      16.729   4.373  51.829  1.00  0.00     0.004 A 
HETATM   29  C14 UNL     1      15.585   4.036  52.520  1.00  0.00     0.042 A 
HETATM   30  C15 UNL     1      15.162   2.726  52.595  1.00  0.00     0.117 A 
HETATM   31  F1  UNL     1      14.025   2.496  53.299  1.00  0.00    -0.206 F 
HETATM   32  C16 UNL     1      15.851   1.691  51.990  1.00  0.00     0.051 A 
ENDBRANCH   8  26
TORSDOF 4
ENDMDL
