ROOT
HETATM    1  C4  UNL     1      23.638  -0.243  53.617  1.00  0.00     0.145 A 
HETATM    2  N2  UNL     1      23.867  -0.982  54.727  1.00  0.00    -0.223 NA
HETATM    3  C5  UNL     1      22.843  -1.536  55.428  1.00  0.00     0.236 A 
HETATM    4  N3  UNL     1      21.576  -1.348  55.007  1.00  0.00    -0.241 NA
HETATM    5  C6  UNL     1      21.296  -0.617  53.905  1.00  0.00     0.077 A 
HETATM    6  C7  UNL     1      19.985  -0.404  53.461  1.00  0.00     0.072 A 
HETATM    7  C8  UNL     1      19.711   0.361  52.323  1.00  0.00     0.107 A 
HETATM    8  C13 UNL     1      20.804   0.886  51.675  1.00  0.00     0.136 A 
HETATM    9  C14 UNL     1      22.102   0.701  52.079  1.00  0.00     0.121 A 
HETATM   10  C15 UNL     1      22.341  -0.055  53.199  1.00  0.00     0.075 A 
HETATM   11  O3  UNL     1      23.074   1.294  51.322  1.00  0.00    -0.345 OA
HETATM   12  C16 UNL     1      22.912   1.949  50.102  1.00  0.00     0.202 C 
HETATM   13  C17 UNL     1      21.550   1.666  49.508  1.00  0.00     0.202 C 
HETATM   14  O4  UNL     1      20.578   1.635  50.563  1.00  0.00    -0.344 OA
ENDROOT
BRANCH   1  15
HETATM   15  N1  UNL     1      24.755   0.282  52.940  1.00  0.00    -0.339 N 
HETATM   16  H2  UNL     1      24.803   0.873  52.053  1.00  0.00     0.167 HD
BRANCH  15  17
HETATM   17  C3  UNL     1      26.166   0.258  53.087  1.00  0.00     0.048 A 
HETATM   18  P1  UNL     1      27.074   1.737  53.335  1.00  0.00    -0.000 P 
HETATM   19  C2  UNL     1      28.793   1.445  53.509  1.00  0.00     0.062 A 
HETATM   20  C1  UNL     1      29.225   0.120  53.433  1.00  0.00     0.139 A 
HETATM   21  F1  UNL     1      30.560  -0.035  53.573  1.00  0.00    -0.204 F 
HETATM   22  C19 UNL     1      28.316  -0.891  53.231  1.00  0.00     0.074 A 
HETATM   23  C18 UNL     1      26.961  -0.874  53.074  1.00  0.00     0.057 A 
HETATM   24 CL1  UNL     1      29.101  -2.482  53.177  1.00  0.00    -0.081 Cl
ENDBRANCH  15  17
ENDBRANCH   1  15
BRANCH   7  25
HETATM   25  O1  UNL     1      18.371   0.445  52.057  1.00  0.00    -0.341 OA
BRANCH  25  26
HETATM   26  C9  UNL     1      17.524  -0.506  51.496  1.00  0.00     0.154 C 
HETATM   27  C10 UNL     1      17.077  -0.163  50.105  1.00  0.00     0.061 C 
HETATM   28  C11 UNL     1      15.626   0.183  50.280  1.00  0.00     0.170 C 
HETATM   29  O2  UNL     1      15.174  -0.587  51.354  1.00  0.00    -0.389 OA
HETATM   30  C12 UNL     1      16.221  -0.618  52.258  1.00  0.00     0.200 C 
ENDBRANCH  25  26
ENDBRANCH   7  25
TORSDOF 4
ENDMDL
