ROOT
HETATM    1  C1  UNL     1      23.174   4.871  51.531  1.00  0.00     0.043 C 
HETATM    2  C2  UNL     1      22.057   3.962  51.860  1.00  0.00    -0.078 C 
HETATM    3  C3  UNL     1      20.800   3.980  52.283  1.00  0.00     0.001 C 
HETATM    4  C4  UNL     1      20.633   2.630  52.231  1.00  0.00     0.113 C 
HETATM    5  N1  UNL     1      20.325   1.605  53.159  1.00  0.00    -0.355 N 
HETATM    6  C5  UNL     1      20.823   0.102  53.488  1.00  0.00     0.441 A 
HETATM    7  N2  UNL     1      19.572  -0.367  53.314  1.00  0.00     0.232 N 
HETATM    8  C6  UNL     1      19.174  -1.576  53.701  1.00  0.00     0.538 A 
HETATM    9  N3  UNL     1      19.768  -0.354  53.367  1.00  0.00     0.232 N 
HETATM   10  C7  UNL     1      21.038  -0.204  53.673  1.00  0.00     0.414 A 
HETATM   11  C8  UNL     1      22.197   0.367  52.738  1.00  0.00     0.085 A 
HETATM   12  C9  UNL     1      23.592   0.169  52.899  1.00  0.00     0.019 A 
HETATM   13  C10 UNL     1      24.244  -0.537  53.887  1.00  0.00     0.030 A 
HETATM   14  N4  UNL     1      25.389  -0.984  54.387  1.00  0.00    -0.310 N 
HETATM   15  C11 UNL     1      26.422  -0.622  53.508  1.00  0.00     0.318 C 
HETATM   16  N5  UNL     1      27.753  -0.991  53.817  1.00  0.00    -0.352 N 
HETATM   17  O1  UNL     1      26.594  -0.018  52.425  1.00  0.00    -0.247 OA
HETATM   18  C12 UNL     1      23.144  -0.907  54.558  1.00  0.00     0.024 A 
HETATM   19  C13 UNL     1      22.019  -0.538  54.095  1.00  0.00     0.149 A 
HETATM   20  C14 UNL     1      22.526   1.330  51.519  1.00  0.00     0.086 C 
HETATM   21 BR1  UNL     1      21.656   0.912  49.899  1.00  0.00    -0.089 Br
HETATM   22  C15 UNL     1      22.195   2.638  52.129  1.00  0.00     0.056 C 
HETATM   23  H6  UNL     1      19.544   2.114  53.733  1.00  0.00     0.158 HD
HETATM   24  H9  UNL     1      25.600  -1.506  55.247  1.00  0.00     0.170 HD
HETATM   25  H10 UNL     1      28.409  -1.617  53.305  1.00  0.00     0.160 HD
HETATM   26  H11 UNL     1      28.465  -0.792  54.582  1.00  0.00     0.160 HD
ENDROOT
TORSDOF 1
ENDMDL
