ROOT
HETATM    1  C2  UNL     1      21.736   0.362  51.842  1.00  0.00     0.104 C 
HETATM    2  C3  UNL     1      22.640  -0.059  52.748  1.00  0.00     0.135 C 
HETATM    3  C5  UNL     1      23.872   0.560  53.232  1.00  0.00     0.106 C 
HETATM    4  C6  UNL     1      24.240   1.744  52.803  1.00  0.00     0.052 C 
HETATM    5  C7  UNL     1      24.022   2.320  51.433  1.00  0.00    -0.021 C 
HETATM    6  C8  UNL     1      25.074   2.793  50.802  1.00  0.00     0.035 C 
HETATM    7  C16 UNL     1      26.310   2.495  51.483  1.00  0.00     0.384 C 
HETATM    8  O3  UNL     1      27.484   2.682  51.449  1.00  0.00    -0.257 OA
HETATM    9  N1  UNL     1      26.837   1.779  52.598  1.00  0.00     0.195 N 
HETATM   10  C17 UNL     1      26.766   0.885  53.725  1.00  0.00     0.213 A 
HETATM   11  O4  UNL     1      27.867   1.391  53.521  1.00  0.00     0.000 OA
HETATM   12  C18 UNL     1      25.927  -0.019  54.554  1.00  0.00     0.246 C 
HETATM   13  O5  UNL     1      24.612  -0.128  54.131  1.00  0.00    -0.342 OA
HETATM   14  C19 UNL     1      22.805   2.383  50.652  1.00  0.00     0.015 C 
HETATM   15  C20 UNL     1      21.856   1.480  50.874  1.00  0.00     0.040 C 
HETATM   16  H14 UNL     1      27.863   1.978  52.658  1.00  0.00     0.335 HD
ENDROOT
BRANCH   6  17
HETATM   17  C9  UNL     1      25.147   3.400  49.513  1.00  0.00     0.083 C 
BRANCH  17  18
HETATM   18  C10 UNL     1      25.617   4.830  49.534  1.00  0.00    -0.052 A 
HETATM   19  C11 UNL     1      24.859   5.623  50.394  1.00  0.00     0.007 A 
HETATM   20  C12 UNL     1      25.206   6.955  50.487  1.00  0.00     0.002 A 
HETATM   21  C13 UNL     1      26.244   7.535  49.789  1.00  0.00     0.018 A 
HETATM   22  C14 UNL     1      26.975   6.699  48.938  1.00  0.00     0.006 A 
HETATM   23  I1  UNL     1      28.598   7.370  47.774  1.00  0.00    -0.045 I 
HETATM   24  C15 UNL     1      26.645   5.365  48.829  1.00  0.00     0.025 A 
ENDBRANCH  17  18
ENDBRANCH   6  17
BRANCH   2  25
HETATM   25  O2  UNL     1      22.366  -1.290  53.331  1.00  0.00    -0.351 OA
HETATM   26  C4  UNL     1      21.673  -1.501  54.520  1.00  0.00     0.210 C 
ENDBRANCH   2  25
BRANCH   1  27
HETATM   27  O1  UNL     1      20.532  -0.314  51.779  1.00  0.00    -0.353 OA
HETATM   28  C1  UNL     1      19.302   0.356  52.090  1.00  0.00     0.210 C 
ENDBRANCH   1  27
TORSDOF 4
ENDMDL
