ROOT
HETATM    1  C1  UNL     1      27.890  -0.820  53.079  1.00  0.00     0.018 C 
HETATM    2  C2  UNL     1      27.676  -0.030  54.349  1.00  0.00     0.046 C 
HETATM    3  C3  UNL     1      28.758   0.968  54.504  1.00  0.00    -0.021 C 
HETATM    4  C4  UNL     1      28.653   1.970  53.610  1.00  0.00    -0.011 C 
HETATM    5  C5  UNL     1      27.562   1.989  52.634  1.00  0.00     0.147 C 
HETATM    6  N1  UNL     1      26.327   1.419  53.041  1.00  0.00    -0.373 N 
HETATM    7  C6  UNL     1      25.259   1.979  52.385  1.00  0.00     0.243 C 
HETATM    8  N2  UNL     1      23.926   1.871  52.856  1.00  0.00    -0.372 N 
HETATM    9  C7  UNL     1      23.275   0.734  53.462  1.00  0.00     0.058 A 
HETATM   10  C8  UNL     1      21.919   0.784  53.342  1.00  0.00     0.061 A 
HETATM   11  C9  UNL     1      21.190  -0.269  53.895  1.00  0.00     0.037 A 
HETATM   12  C12 UNL     1      21.867  -1.287  54.521  1.00  0.00     0.032 A 
HETATM   13  C13 UNL     1      23.224  -1.326  54.634  1.00  0.00     0.034 A 
HETATM   14  C14 UNL     1      23.975  -0.300  54.099  1.00  0.00     0.056 A 
HETATM   15  N4  UNL     1      25.399  -0.450  54.279  1.00  0.00    -0.366 N 
HETATM   16  C15 UNL     1      26.314   0.661  54.191  1.00  0.00     0.188 C 
HETATM   17  H11 UNL     1      23.293   2.722  52.767  1.00  0.00     0.161 HD
HETATM   18  H18 UNL     1      25.679  -1.456  54.480  1.00  0.00     0.161 HD
ENDROOT
BRANCH  11  19
HETATM   19  N3  UNL     1      19.786  -0.218  53.771  1.00  0.00    -0.326 N 
HETATM   20  C10 UNL     1      19.309  -0.127  52.443  1.00  0.00     0.235 C 
HETATM   21  O1  UNL     1      20.091  -0.095  51.456  1.00  0.00    -0.272 OA
HETATM   22  H13 UNL     1      19.161  -0.247  54.610  1.00  0.00     0.169 HD
BRANCH  20  23
HETATM   23  C11 UNL     1      17.849  -0.066  52.176  1.00  0.00     0.217 C 
HETATM   24 CL1  UNL     1      17.065  -1.468  52.949  1.00  0.00    -0.121 Cl
ENDBRANCH  20  23
ENDBRANCH  11  19
TORSDOF 2
ENDMDL
