ROOT
HETATM    1  C1  UNL     1      29.907   0.851  54.200  1.00  0.00     0.044 C 
HETATM    2  C2  UNL     1      28.604   0.564  53.479  1.00  0.00    -0.069 C 
HETATM    3  C3  UNL     1      27.907   1.651  53.230  1.00  0.00     0.035 C 
HETATM    4  C4  UNL     1      26.664   2.131  52.619  1.00  0.00     0.066 C 
HETATM    5  N1  UNL     1      27.088   2.328  51.388  1.00  0.00    -0.259 NA
HETATM    6  C5  UNL     1      26.293   2.822  50.321  1.00  0.00     0.138 C 
HETATM    7  C6  UNL     1      25.019   3.166  50.431  1.00  0.00     0.067 C 
HETATM    8  C7  UNL     1      24.311   3.636  49.316  1.00  0.00     0.099 C 
HETATM    9  N2  UNL     1      23.712   4.022  48.408  1.00  0.00    -0.192 NA
HETATM   10  C8  UNL     1      24.450   3.110  51.804  1.00  0.00     0.164 C 
HETATM   11  C15 UNL     1      25.307   2.419  52.750  1.00  0.00     0.010 C 
HETATM   12  C16 UNL     1      24.680   1.954  53.843  1.00  0.00    -0.001 C 
HETATM   13  C17 UNL     1      24.075   0.849  53.473  1.00  0.00     0.034 C 
HETATM   14  C21 UNL     1      25.144  -0.113  53.277  1.00  0.00     0.172 A 
HETATM   15  O1  UNL     1      25.875  -0.369  52.310  1.00  0.00    -0.251 OA
HETATM   16  N5  UNL     1      25.904  -1.173  53.907  1.00  0.00    -0.297 N 
HETATM   17  S1  UNL     1      27.154  -1.680  52.701  1.00  0.00     0.023 SA
HETATM   18  C22 UNL     1      28.662  -0.887  53.402  1.00  0.00     0.148 C 
HETATM   19  H19 UNL     1      25.355  -1.146  54.793  1.00  0.00     0.177 HD
ENDROOT
BRANCH  10  20
HETATM   20  N3  UNL     1      24.014   4.395  52.304  1.00  0.00    -0.376 N 
HETATM   21  H7  UNL     1      24.173   4.459  53.355  1.00  0.00     0.160 HD
BRANCH  20  22
HETATM   22  C9  UNL     1      23.443   5.527  51.679  1.00  0.00     0.030 A 
HETATM   23  C10 UNL     1      22.120   5.729  51.438  1.00  0.00     0.032 A 
HETATM   24  C11 UNL     1      21.578   6.830  50.811  1.00  0.00     0.046 A 
HETATM   25  C12 UNL     1      22.452   7.809  50.392  1.00  0.00     0.138 A 
HETATM   26  F1  UNL     1      22.007   8.923  49.769  1.00  0.00    -0.204 F 
HETATM   27  C13 UNL     1      23.792   7.652  50.612  1.00  0.00     0.074 A 
HETATM   28 CL1  UNL     1      24.897   8.896  50.080  1.00  0.00    -0.081 Cl
HETATM   29  C14 UNL     1      24.279   6.532  51.243  1.00  0.00     0.056 A 
ENDBRANCH  20  22
ENDBRANCH  10  20
BRANCH  13  30
HETATM   30  C18 UNL     1      22.954  -0.025  53.114  1.00  0.00     0.315 C 
BRANCH  30  31
HETATM   31  N4  UNL     1      22.015  -0.205  54.186  1.00  0.00     0.084 N 
HETATM   32  C19 UNL     1      20.792   0.539  53.936  1.00  0.00     0.309 C 
HETATM   33  C20 UNL     1      21.686  -1.600  54.362  1.00  0.00     0.309 C 
ENDBRANCH  30  31
ENDBRANCH  13  30
TORSDOF 4
ENDMDL
