ROOT
HETATM    1  C4  UNL     1      25.054   0.594  52.804  1.00  0.00    -0.022 A 
HETATM    2  C5  UNL     1      23.875  -0.011  53.171  1.00  0.00     0.014 A 
HETATM    3  C6  UNL     1      22.655   0.297  52.607  1.00  0.00     0.033 A 
HETATM    4  C7  UNL     1      22.638   1.265  51.625  1.00  0.00     0.070 A 
HETATM    5  N2  UNL     1      21.479   1.627  51.019  1.00  0.00    -0.241 NA
HETATM    6  C8  UNL     1      21.543   2.582  50.067  1.00  0.00     0.234 A 
HETATM    7  N3  UNL     1      22.688   3.209  49.670  1.00  0.00    -0.240 NA
HETATM    8  C9  UNL     1      23.859   2.852  50.273  1.00  0.00     0.082 A 
HETATM    9  C18 UNL     1      23.816   1.878  51.249  1.00  0.00     0.023 A 
HETATM   10  C19 UNL     1      25.043   1.577  51.807  1.00  0.00     0.028 A 
ENDROOT
BRANCH   8  11
HETATM   11  C10 UNL     1      25.000   3.575  49.779  1.00  0.00     0.008 A 
HETATM   12  C11 UNL     1      26.257   3.317  49.537  1.00  0.00     0.020 A 
HETATM   13  C12 UNL     1      26.948   4.323  49.074  1.00  0.00     0.078 A 
HETATM   14  N4  UNL     1      28.245   4.497  48.699  1.00  0.00    -0.259 NA
HETATM   15  C16 UNL     1      26.087   5.415  48.976  1.00  0.00    -0.006 A 
HETATM   16  C13 UNL     1      28.713   5.682  48.241  1.00  0.00     0.117 A 
HETATM   17  C14 UNL     1      27.897   6.805  48.122  1.00  0.00     0.020 A 
HETATM   18  C15 UNL     1      26.586   6.614  48.505  1.00  0.00     0.015 A 
HETATM   19  C17 UNL     1      24.889   4.999  49.395  1.00  0.00     0.028 A 
ENDBRANCH   8  11
BRANCH   1  20
HETATM   20  C3  UNL     1      26.333   0.252  53.415  1.00  0.00     0.010 A 
HETATM   21  C2  UNL     1      27.558  -0.089  52.863  1.00  0.00     0.125 A 
HETATM   22  N1  UNL     1      28.455  -0.324  53.831  1.00  0.00    -0.285 N 
HETATM   23  C1  UNL     1      29.830  -0.702  53.647  1.00  0.00     0.179 C 
HETATM   24  N5  UNL     1      27.839  -0.143  54.984  1.00  0.00    -0.185 NA
HETATM   25  C20 UNL     1      26.564   0.204  54.795  1.00  0.00     0.152 A 
ENDBRANCH   1  20
TORSDOF 2
ENDMDL
