ROOT
HETATM    1  C2  UNL     1      26.805  -0.170  52.794  1.00  0.00     0.078 A 
HETATM    2  C3  UNL     1      27.051   0.762  51.853  1.00  0.00     0.068 A 
HETATM    3  C4  UNL     1      26.294   1.862  51.545  1.00  0.00     0.057 A 
HETATM    4  C9  UNL     1      25.110   2.091  52.264  1.00  0.00     0.055 A 
HETATM    5  C10 UNL     1      24.855   1.142  53.228  1.00  0.00     0.043 A 
HETATM    6  C11 UNL     1      25.652   0.026  53.516  1.00  0.00    -0.003 A 
HETATM    7  C12 UNL     1      24.997  -0.792  54.579  1.00  0.00     0.190 C 
HETATM    8  N3  UNL     1      23.527  -0.508  54.507  1.00  0.00    -0.295 NA
HETATM    9  C13 UNL     1      22.920  -0.852  53.381  1.00  0.00     0.142 C 
HETATM   10  C14 UNL     1      21.478  -0.650  53.110  1.00  0.00     0.073 A 
HETATM   11  C15 UNL     1      20.492  -1.207  53.894  1.00  0.00     0.035 A 
HETATM   12  C16 UNL     1      19.245  -0.820  53.416  1.00  0.00     0.029 A 
HETATM   13  C17 UNL     1      19.552  -0.031  52.336  1.00  0.00     0.030 A 
HETATM   14  C18 UNL     1      18.400   0.553  51.587  1.00  0.00     0.070 C 
HETATM   15  N4  UNL     1      20.875   0.079  52.141  1.00  0.00    -0.264 N 
HETATM   16  N5  UNL     1      21.438   0.801  51.095  1.00  0.00    -0.327 N 
HETATM   17  C19 UNL     1      22.727   1.430  51.025  1.00  0.00     0.164 C 
HETATM   18  C20 UNL     1      22.779   2.558  52.013  1.00  0.00     0.097 C 
HETATM   19  C21 UNL     1      21.760   3.624  51.653  1.00  0.00     0.034 C 
HETATM   20  N6  UNL     1      24.122   3.129  52.111  1.00  0.00    -0.382 N 
HETATM   21  H25 UNL     1      20.865   0.923  50.199  1.00  0.00     0.180 HD
HETATM   22  H32 UNL     1      24.788   3.895  52.139  1.00  0.00     0.160 HD
ENDROOT
BRANCH   3  23
HETATM   23  N1  UNL     1      26.543   2.874  50.557  1.00  0.00    -0.386 N 
HETATM   24  H5  UNL     1      27.579   3.011  50.797  1.00  0.00     0.159 HD
BRANCH  23  25
HETATM   25  C5  UNL     1      26.780   3.845  49.609  1.00  0.00     0.150 C 
BRANCH  25  26
HETATM   26  C6  UNL     1      25.535   4.739  49.420  1.00  0.00     0.290 C 
BRANCH  26  27
HETATM   27  N2  UNL     1      25.955   6.044  48.977  1.00  0.00     0.081 N 
HETATM   28  C7  UNL     1      25.679   6.988  50.041  1.00  0.00     0.309 C 
HETATM   29  C8  UNL     1      27.300   6.094  48.485  1.00  0.00     0.309 C 
ENDBRANCH  26  27
ENDBRANCH  25  26
ENDBRANCH  23  25
ENDBRANCH   3  23
BRANCH   1  30
HETATM   30  O1  UNL     1      27.460  -1.272  53.186  1.00  0.00    -0.355 OA
HETATM   31  C1  UNL     1      28.860  -1.324  53.336  1.00  0.00     0.210 C 
ENDBRANCH   1  30
TORSDOF 5
ENDMDL
