ROOT
HETATM    1  C5  UNL     1      24.731   0.708  52.658  1.00  0.00     0.095 A 
HETATM    2  N1  UNL     1      24.555   1.639  51.702  1.00  0.00    -0.170 NA
HETATM    3  N2  UNL     1      25.615   2.421  51.613  1.00  0.00    -0.246 N 
HETATM    4  C17 UNL     1      26.531   2.016  52.527  1.00  0.00     0.164 A 
HETATM    5  N5  UNL     1      27.779   2.386  52.926  1.00  0.00    -0.222 NA
HETATM    6  C18 UNL     1      28.418   1.720  53.914  1.00  0.00     0.237 A 
HETATM    7  N6  UNL     1      27.867   0.667  54.551  1.00  0.00    -0.224 NA
HETATM    8  C19 UNL     1      26.617   0.237  54.205  1.00  0.00     0.139 A 
HETATM    9  C20 UNL     1      25.974   0.932  53.189  1.00  0.00     0.087 A 
ENDROOT
BRANCH   3  10
HETATM   10  C6  UNL     1      25.951   3.557  50.774  1.00  0.00     0.112 C 
HETATM   11  C7  UNL     1      24.688   4.271  50.358  1.00  0.00     0.029 C 
HETATM   12  C8  UNL     1      24.924   5.101  49.087  1.00  0.00     0.027 C 
HETATM   13  C9  UNL     1      26.330   5.617  49.117  1.00  0.00     0.079 C 
HETATM   14  C15 UNL     1      27.269   4.444  48.935  1.00  0.00     0.027 C 
HETATM   15  C16 UNL     1      26.661   3.167  49.524  1.00  0.00     0.029 C 
BRANCH  13  16
HETATM   16  N3  UNL     1      26.625   6.580  48.129  1.00  0.00    -0.405 N 
HETATM   17  C10 UNL     1      25.696   7.636  47.936  1.00  0.00     0.147 C 
HETATM   18  C11 UNL     1      26.244   8.976  47.605  1.00  0.00     0.291 C 
HETATM   19  N4  UNL     1      27.548   9.270  48.101  1.00  0.00     0.087 N 
HETATM   20  C12 UNL     1      27.627  10.344  49.045  1.00  0.00     0.310 C 
HETATM   21  C13 UNL     1      28.339   8.164  48.510  1.00  0.00     0.291 C 
HETATM   22  C14 UNL     1      27.963   6.863  47.844  1.00  0.00     0.147 C 
ENDBRANCH  13  16
ENDBRANCH   3  10
BRANCH   1  23
HETATM   23  C4  UNL     1      23.730  -0.300  52.987  1.00  0.00     0.034 C 
HETATM   24  C3  UNL     1      22.481   0.105  53.145  1.00  0.00    -0.002 C 
BRANCH  24  25
HETATM   25  C2  UNL     1      22.081   1.500  53.001  1.00  0.00    -0.026 C 
HETATM   26  C1  UNL     1      20.894   1.961  52.571  1.00  0.00     0.031 C 
ENDBRANCH  24  25
ENDBRANCH   1  23
BRANCH   8  27
HETATM   27  N7  UNL     1      25.983  -0.867  54.838  1.00  0.00    -0.383 N 
HETATM   28  H28 UNL     1      25.079  -0.482  55.224  1.00  0.00     0.157 HD
HETATM   29  H29 UNL     1      26.408  -1.823  54.863  1.00  0.00     0.157 HD
ENDBRANCH   8  27
TORSDOF 5
ENDMDL
