ROOT
HETATM    1  C1  UNL     1      21.398   1.762  50.743  1.00  0.00     0.039 C 
HETATM    2  C2  UNL     1      21.576   1.246  52.171  1.00  0.00     0.135 A 
HETATM    3  C3  UNL     1      22.695   1.001  52.954  1.00  0.00     0.040 A 
HETATM    4  N1  UNL     1      21.623   0.664  53.647  1.00  0.00    -0.351 N 
HETATM    5  C4  UNL     1      21.071  -0.148  54.423  1.00  0.00     0.089 C 
HETATM    6  C5  UNL     1      21.894  -1.366  54.875  1.00  0.00     0.054 C 
HETATM    7  C6  UNL     1      23.399  -1.149  54.783  1.00  0.00     0.011 C 
HETATM    8  C7  UNL     1      24.619  -1.216  55.515  1.00  0.00     0.297 A 
HETATM    9  N2  UNL     1      25.904  -0.818  54.770  1.00  0.00    -0.057 NA
HETATM   10  C8  UNL     1      25.669   0.094  53.681  1.00  0.00     0.173 A 
HETATM   11  C11 UNL     1      24.983   0.981  52.475  1.00  0.00     0.112 A 
HETATM   12  C12 UNL     1      23.812   1.370  52.192  1.00  0.00    -0.015 A 
HETATM   13  C13 UNL     1      24.890   1.867  51.277  1.00  0.00     0.097 A 
HETATM   14  S1  UNL     1      26.350   1.002  52.149  1.00  0.00    -0.142 SA
HETATM   15  C14 UNL     1      25.343   0.260  53.394  1.00  0.00     0.255 A 
HETATM   16  N4  UNL     1      24.939  -0.498  54.489  1.00  0.00     0.054 N 
HETATM   17  H16 UNL     1      24.084   0.086  54.701  1.00  0.00     0.308 HD
ENDROOT
BRANCH  10  18
HETATM   18  N3  UNL     1      27.125   0.584  54.042  1.00  0.00    -0.389 N 
HETATM   19  H9  UNL     1      27.345   1.611  53.678  1.00  0.00     0.156 HD
BRANCH  18  20
HETATM   20  C9  UNL     1      28.351   0.171  54.763  1.00  0.00     0.142 C 
BRANCH  20  21
HETATM   21  C10 UNL     1      29.256  -0.621  53.835  1.00  0.00     0.183 C 
BRANCH  21  22
HETATM   22  O1  UNL     1      28.609  -1.828  53.627  1.00  0.00    -0.399 OA
HETATM   23  H14 UNL     1      27.717  -1.847  54.090  1.00  0.00     0.209 HD
ENDBRANCH  21  22
ENDBRANCH  20  21
ENDBRANCH  18  20
ENDBRANCH  10  18
TORSDOF 7
ENDMDL
