ROOT
HETATM    1  C6  UNL     1      26.064   5.144  49.327  1.00  0.00     0.035 A 
HETATM    2  C7  UNL     1      26.867   4.003  49.325  1.00  0.00     0.032 A 
HETATM    3  C8  UNL     1      26.485   2.981  50.142  1.00  0.00     0.041 A 
HETATM    4  C9  UNL     1      25.378   2.979  50.964  1.00  0.00     0.091 A 
HETATM    5  C17 UNL     1      24.580   4.126  50.957  1.00  0.00     0.069 A 
HETATM    6 CL1  UNL     1      23.138   4.241  51.967  1.00  0.00    -0.081 Cl
HETATM    7  C18 UNL     1      24.963   5.181  50.124  1.00  0.00     0.056 A 
ENDROOT
BRANCH   1   8
HETATM    8  N3  UNL     1      26.396   6.255  48.501  1.00  0.00    -0.341 N 
HETATM    9  H7  UNL     1      25.933   6.339  47.548  1.00  0.00     0.167 HD
BRANCH   8  10
HETATM   10  C5  UNL     1      27.306   7.298  48.815  1.00  0.00     0.129 A 
HETATM   11  N2  UNL     1      26.713   8.198  49.740  1.00  0.00    -0.224 NA
HETATM   12  C4  UNL     1      27.287   9.245  50.216  1.00  0.00     0.235 A 
HETATM   13  N1  UNL     1      28.603   9.645  49.877  1.00  0.00    -0.246 NA
HETATM   14  C3  UNL     1      29.383   9.025  49.064  1.00  0.00     0.039 A 
HETATM   15  P1  UNL     1      28.811   7.534  48.269  1.00  0.00    -0.040 P 
HETATM   16  C19 UNL     1      28.865   7.678  46.468  1.00  0.00     0.050 C 
HETATM   17  H17 UNL     1      29.559   6.409  48.658  1.00  0.00     0.066 HD
BRANCH  14  18
HETATM   18  C2  UNL     1      30.742   9.206  48.548  1.00  0.00     0.055 C 
HETATM   19  C1  UNL     1      31.743   8.278  49.224  1.00  0.00     0.011 C 
ENDBRANCH  14  18
ENDBRANCH   8  10
ENDBRANCH   1   8
BRANCH   4  20
HETATM   20  O1  UNL     1      25.028   1.909  51.781  1.00  0.00    -0.345 OA
BRANCH  20  21
HETATM   21  C10 UNL     1      25.604   1.816  53.076  1.00  0.00     0.214 C 
BRANCH  21  22
HETATM   22  C11 UNL     1      26.640   0.764  53.120  1.00  0.00    -0.031 A 
HETATM   23  C12 UNL     1      27.913   0.978  53.607  1.00  0.00     0.009 A 
HETATM   24  C13 UNL     1      28.897   0.016  53.660  1.00  0.00     0.004 A 
HETATM   25  C14 UNL     1      28.564  -1.241  53.189  1.00  0.00     0.042 A 
HETATM   26  C15 UNL     1      27.311  -1.518  52.692  1.00  0.00     0.117 A 
HETATM   27  F1  UNL     1      27.052  -2.782  52.245  1.00  0.00    -0.206 F 
HETATM   28  C16 UNL     1      26.349  -0.514  52.659  1.00  0.00     0.051 A 
ENDBRANCH  21  22
ENDBRANCH  20  21
ENDBRANCH   4  20
TORSDOF 6
ENDMDL
