ROOT
HETATM    1  N1  UNL     1      24.601   2.339  51.677  1.00  0.00    -0.340 N 
HETATM    2  C4  UNL     1      24.225   3.321  50.760  1.00  0.00     0.051 C 
HETATM    3  C5  UNL     1      22.995   3.385  50.347  1.00  0.00     0.048 C 
HETATM    4  C6  UNL     1      22.322   4.273  49.444  1.00  0.00     0.163 C 
HETATM    5  O1  UNL     1      21.313   4.007  48.766  1.00  0.00    -0.292 OA
HETATM    6  C7  UNL     1      22.928   5.631  49.347  1.00  0.00     0.088 C 
HETATM    7  C8  UNL     1      24.285   5.406  48.662  1.00  0.00     0.045 C 
HETATM    8  P1  UNL     1      25.312   4.627  50.004  1.00  0.00    -0.075 P 
HETATM    9  P2  UNL     1      22.185   1.849  50.952  1.00  0.00     0.008 P 
HETATM   10  C9  UNL     1      23.496   1.547  52.034  1.00  0.00     0.055 C 
HETATM   11  C10 UNL     1      22.869   0.599  52.949  1.00  0.00     0.006 A 
HETATM   12  C11 UNL     1      23.421  -0.488  53.593  1.00  0.00     0.015 A 
HETATM   13  C12 UNL     1      22.632  -1.234  54.478  1.00  0.00     0.001 A 
HETATM   14  C13 UNL     1      21.294  -0.917  54.738  1.00  0.00     0.001 A 
HETATM   15  C14 UNL     1      20.791   0.195  54.055  1.00  0.00     0.016 A 
HETATM   16  C15 UNL     1      21.552   0.979  53.150  1.00  0.00     0.027 A 
HETATM   17  C16 UNL     1      21.101   2.180  52.374  1.00  0.00     0.188 C 
HETATM   18  O2  UNL     1      20.237   2.966  52.838  1.00  0.00    -0.287 OA
HETATM   19  H12 UNL     1      25.406   5.656  51.051  1.00  0.00     0.064 HD
HETATM   20  H13 UNL     1      21.924   0.973  50.164  1.00  0.00     0.072 HD
ENDROOT
BRANCH   1  21
HETATM   21  C2  UNL     1      25.922   2.111  52.226  1.00  0.00     0.082 C 
HETATM   22  C1  UNL     1      25.914   2.259  53.741  1.00  0.00     0.032 C 
HETATM   23  C3  UNL     1      26.438   0.729  51.811  1.00  0.00     0.032 C 
ENDBRANCH   1  21
TORSDOF 1
ENDMDL
