ROOT
HETATM    1  C1  UNL     1      23.752   5.297  52.034  1.00  0.00     0.044 C 
HETATM    2  C2  UNL     1      22.524   4.505  52.170  1.00  0.00     0.148 C 
HETATM    3  C3  UNL     1      22.747   3.098  52.679  1.00  0.00     0.038 C 
HETATM    4  C4  UNL     1      22.248   2.084  51.912  1.00  0.00     0.064 C 
HETATM    5  O1  UNL     1      20.861   1.819  52.263  1.00  0.00    -0.329 OA
HETATM    6  C5  UNL     1      19.633   2.474  51.923  1.00  0.00     0.350 C 
HETATM    7  O2  UNL     1      19.884   3.421  50.794  1.00  0.00    -0.305 OA
HETATM    8  C6  UNL     1      21.236   3.336  50.224  1.00  0.00     0.385 A 
HETATM    9  C7  UNL     1      20.972   2.278  49.425  1.00  0.00     0.332 A 
HETATM   10  C8  UNL     1      21.853   1.543  48.539  1.00  0.00     0.279 A 
HETATM   11  N1  UNL     1      22.166   2.334  49.479  1.00  0.00     0.059 N 
HETATM   12  C9  UNL     1      23.473   2.642  49.876  1.00  0.00     0.226 C 
HETATM   13  N2  UNL     1      24.297   3.409  49.325  1.00  0.00    -0.249 NA
HETATM   14  C10 UNL     1      25.606   3.774  49.641  1.00  0.00     0.272 C 
HETATM   15  N3  UNL     1      26.213   3.309  50.832  1.00  0.00    -0.371 N 
HETATM   16  C11 UNL     1      25.915   2.326  51.813  1.00  0.00     0.038 A 
HETATM   17  C12 UNL     1      26.967   2.111  52.662  1.00  0.00     0.030 A 
HETATM   18  C13 UNL     1      26.803   1.167  53.656  1.00  0.00     0.004 A 
HETATM   19  C14 UNL     1      25.597   0.503  53.734  1.00  0.00     0.023 A 
HETATM   20  C15 UNL     1      24.543   0.751  52.847  1.00  0.00     0.054 A 
HETATM   21  C16 UNL     1      23.369  -0.040  53.067  1.00  0.00     0.100 C 
HETATM   22  N4  UNL     1      22.428  -0.691  53.233  1.00  0.00    -0.191 NA
HETATM   23  C17 UNL     1      24.688   1.693  51.843  1.00  0.00     0.007 A 
HETATM   24  C18 UNL     1      23.452   1.758  51.063  1.00  0.00     0.157 C 
HETATM   25  O3  UNL     1      21.823   4.421  50.920  1.00  0.00    -0.321 OA
HETATM   26  H12 UNL     1      27.101   3.854  50.988  1.00  0.00     0.161 HD
ENDROOT
TORSDOF 0
ENDMDL
