ROOT
HETATM    1  N1  UNL     1      25.506   3.267  50.440  1.00  0.00    -0.136 NA
HETATM    2  N2  UNL     1      26.657   3.085  50.941  1.00  0.00    -0.068 NA
ENDROOT
BRANCH   2   3
HETATM    3  N3  UNL     1      26.743   2.539  52.246  1.00  0.00    -0.260 N 
HETATM    4  H16 UNL     1      26.513   3.257  52.983  1.00  0.00     0.191 HD
BRANCH   3   5
HETATM    5  C10 UNL     1      27.079   1.229  52.671  1.00  0.00     0.049 A 
HETATM    6  C11 UNL     1      27.775   0.899  53.755  1.00  0.00     0.019 A 
HETATM    7  C12 UNL     1      27.881  -0.584  53.801  1.00  0.00     0.083 A 
HETATM    8  C13 UNL     1      29.277  -1.036  53.634  1.00  0.00     0.124 C 
HETATM    9  C15 UNL     1      27.136  -1.001  52.576  1.00  0.00    -0.046 A 
HETATM   10  N4  UNL     1      29.313  -2.301  53.326  1.00  0.00    -0.195 NA
HETATM   11  N5  UNL     1      28.148  -3.055  53.192  1.00  0.00    -0.310 N 
HETATM   12  C14 UNL     1      27.090  -2.476  52.380  1.00  0.00     0.176 C 
HETATM   13  H20 UNL     1      27.986  -3.994  53.630  1.00  0.00     0.182 HD
HETATM   14  C16 UNL     1      26.669   0.033  51.919  1.00  0.00     0.036 A 
ENDBRANCH   3   5
ENDBRANCH   2   3
BRANCH   1  15
HETATM   15  C2  UNL     1      24.301   2.964  51.089  1.00  0.00     0.072 C 
HETATM   16  C1  UNL     1      24.017   4.151  51.613  1.00  0.00     0.045 C 
BRANCH  15  17
HETATM   17  C3  UNL     1      23.519   1.720  51.198  1.00  0.00     0.228 C 
BRANCH  17  18
HETATM   18  O1  UNL     1      23.132   1.434  52.484  1.00  0.00    -0.380 OA
BRANCH  18  19
HETATM   19  C4  UNL     1      22.224   0.386  52.597  1.00  0.00     0.121 C 
HETATM   20  C5  UNL     1      21.391   0.617  53.832  1.00  0.00     0.032 C 
HETATM   21  C6  UNL     1      21.337  -0.550  54.775  1.00  0.00     0.002 C 
HETATM   22  C7  UNL     1      22.697  -1.071  55.160  1.00  0.00     0.000 C 
HETATM   23  C8  UNL     1      23.754  -0.693  54.138  1.00  0.00     0.002 C 
HETATM   24  C9  UNL     1      23.057  -0.867  52.781  1.00  0.00     0.032 C 
ENDBRANCH  18  19
ENDBRANCH  17  18
ENDBRANCH  15  17
ENDBRANCH   1  15
TORSDOF 6
ENDMDL
