ROOT
HETATM    1  C5  UNL     1      24.942   2.726  51.800  1.00  0.00    -0.049 C 
HETATM    2  C6  UNL     1      26.255   2.436  51.993  1.00  0.00     0.050 C 
HETATM    3  C7  UNL     1      27.128   2.135  53.138  1.00  0.00     0.103 C 
HETATM    4  C8  UNL     1      27.778   0.824  53.174  1.00  0.00    -0.044 A 
HETATM    5  C9  UNL     1      29.135   0.883  53.531  1.00  0.00     0.008 A 
HETATM    6  C10 UNL     1      30.005  -0.174  53.669  1.00  0.00     0.001 A 
HETATM    7  C11 UNL     1      29.532  -1.450  53.441  1.00  0.00     0.001 A 
HETATM    8  C12 UNL     1      28.206  -1.569  53.087  1.00  0.00     0.010 A 
HETATM    9  C13 UNL     1      27.374  -0.489  52.959  1.00  0.00    -0.028 A 
HETATM   10  C14 UNL     1      25.964  -0.755  52.543  1.00  0.00     0.206 C 
HETATM   11  O2  UNL     1      25.217   0.270  53.084  1.00  0.00    -0.387 OA
HETATM   12  C15 UNL     1      23.906   0.305  52.621  1.00  0.00     0.168 C 
HETATM   13  C16 UNL     1      23.246   1.565  53.192  1.00  0.00     0.030 C 
HETATM   14  C17 UNL     1      24.243   2.711  53.101  1.00  0.00     0.039 C 
ENDROOT
BRANCH   1  15
HETATM   15  C4  UNL     1      24.435   2.977  50.458  1.00  0.00     0.056 C 
BRANCH  15  16
HETATM   16  C3  UNL     1      23.881   4.341  50.202  1.00  0.00     0.120 C 
BRANCH  16  17
HETATM   17  N1  UNL     1      24.718   5.443  50.378  1.00  0.00    -0.421 N 
HETATM   18  C1  UNL     1      24.288   6.581  51.080  1.00  0.00     0.142 C 
HETATM   19  C2  UNL     1      25.826   5.591  49.504  1.00  0.00     0.142 C 
ENDBRANCH  16  17
ENDBRANCH  15  16
ENDBRANCH   1  15
BRANCH   2  20
HETATM   20  O1  UNL     1      27.029   2.403  50.813  1.00  0.00    -0.364 OA
HETATM   21  H11 UNL     1      26.772   1.840  50.022  1.00  0.00     0.217 HD
ENDBRANCH   2  20
TORSDOF 4
ENDMDL
