ROOT
HETATM    1  N1  UNL     1      24.626   2.282  53.502  1.00  0.00    -0.255 NA
HETATM    2  C6  UNL     1      25.264   1.106  53.373  1.00  0.00     0.065 A 
HETATM    3  C7  UNL     1      25.908   2.306  53.730  1.00  0.00     0.107 A 
HETATM    4  C8  UNL     1      25.264   1.101  53.372  1.00  0.00     0.143 A 
HETATM    5  O1  UNL     1      26.239   1.147  52.070  1.00  0.00     0.000 OA
HETATM    6  C9  UNL     1      27.613   0.621  52.676  1.00  0.00     0.048 A 
HETATM    7  C10 UNL     1      26.746  -0.507  52.092  1.00  0.00     0.287 A 
HETATM    8  C11 UNL     1      27.811  -1.045  52.682  1.00  0.00     0.205 A 
HETATM    9  C12 UNL     1      28.969  -1.330  53.336  1.00  0.00     0.051 A 
HETATM   10 CL1  UNL     1      29.128  -2.993  53.504  1.00  0.00    -0.086 Cl
HETATM   11  C13 UNL     1      29.524  -0.106  53.711  1.00  0.00     0.027 A 
HETATM   12  C14 UNL     1      28.848   1.016  53.402  1.00  0.00    -0.052 A 
HETATM   13  C15 UNL     1      28.728   2.498  53.615  1.00  0.00     0.151 C 
HETATM   14  N2  UNL     1      27.234   2.756  54.052  1.00  0.00    -0.396 N 
HETATM   15  N3  UNL     1      26.312  -1.378  53.036  1.00  0.00    -0.046 N 
HETATM   16  C16 UNL     1      25.185  -0.515  53.010  1.00  0.00     0.239 A 
HETATM   17  H12 UNL     1      26.539   3.256  54.652  1.00  0.00     0.155 HD
HETATM   18  H13 UNL     1      26.350  -2.363  53.312  1.00  0.00     0.282 HD
ENDROOT
BRANCH   1  19
HETATM   19  C5  UNL     1      23.988   3.048  52.820  1.00  0.00     0.062 C 
BRANCH  19  20
HETATM   20  C4  UNL     1      23.282   4.035  52.033  1.00  0.00     0.009 C 
BRANCH  20  21
HETATM   21  C3  UNL     1      23.811   3.492  50.904  1.00  0.00    -0.010 C 
BRANCH  21  22
HETATM   22  C2  UNL     1      24.716   4.491  50.159  1.00  0.00     0.021 A 
HETATM   23  C1  UNL     1      25.746   4.977  49.535  1.00  0.00     0.149 A 
HETATM   24 BR1  UNL     1      26.471   3.707  49.680  1.00  0.00    -0.157 Br
ENDBRANCH  21  22
ENDBRANCH  20  21
ENDBRANCH  19  20
ENDBRANCH   1  19
TORSDOF 5
ENDMDL
