ROOT
HETATM    1  C7  UNL     1      24.709  -0.344  53.742  1.00  0.00     0.142 A 
HETATM    2  N2  UNL     1      25.159  -0.885  54.886  1.00  0.00    -0.224 NA
HETATM    3  C8  UNL     1      24.354  -1.437  55.822  1.00  0.00     0.236 A 
HETATM    4  N3  UNL     1      22.992  -1.476  55.648  1.00  0.00    -0.241 NA
HETATM    5  C9  UNL     1      22.518  -0.938  54.507  1.00  0.00     0.075 A 
HETATM    6  C10 UNL     1      21.146  -1.008  54.389  1.00  0.00     0.071 A 
HETATM    7  C11 UNL     1      20.523  -0.497  53.275  1.00  0.00     0.098 A 
HETATM    8  C12 UNL     1      21.342   0.071  52.314  1.00  0.00     0.071 A 
HETATM    9  C13 UNL     1      22.705   0.163  52.383  1.00  0.00     0.050 A 
HETATM   10  C14 UNL     1      23.324  -0.360  53.521  1.00  0.00     0.041 A 
HETATM   11  N4  UNL     1      20.759   0.628  51.146  1.00  0.00    -0.314 N 
HETATM   12  C22 UNL     1      19.317   0.529  51.095  1.00  0.00     0.248 C 
HETATM   13  O2  UNL     1      18.693   0.542  49.979  1.00  0.00    -0.271 OA
HETATM   14  C23 UNL     1      18.462   0.402  52.305  1.00  0.00     0.279 C 
HETATM   15  O3  UNL     1      19.138  -0.560  53.139  1.00  0.00    -0.340 OA
ENDROOT
BRANCH   1  16
HETATM   16  N1  UNL     1      25.388   0.236  52.639  1.00  0.00    -0.340 N 
HETATM   17  H7  UNL     1      24.966   0.442  51.696  1.00  0.00     0.167 HD
BRANCH  16  18
HETATM   18  C6  UNL     1      26.728   0.493  53.044  1.00  0.00     0.034 A 
HETATM   19  C5  UNL     1      27.110   1.799  53.364  1.00  0.00     0.029 A 
HETATM   20  C4  UNL     1      28.393   2.136  53.768  1.00  0.00     0.003 A 
HETATM   21  C3  UNL     1      29.333   1.139  53.861  1.00  0.00     0.007 A 
HETATM   22  C2  UNL     1      28.995  -0.172  53.554  1.00  0.00    -0.060 A 
HETATM   23  C1  UNL     1      30.090  -1.155  53.704  1.00  0.00     0.048 C 
HETATM   24  C24 UNL     1      27.722  -0.471  53.157  1.00  0.00     0.036 A 
ENDBRANCH  16  18
ENDBRANCH   1  16
BRANCH  11  25
HETATM   25  C15 UNL     1      21.410   1.300  50.044  1.00  0.00     0.134 C 
BRANCH  25  26
HETATM   26  C16 UNL     1      21.299   2.804  50.161  1.00  0.00     0.050 C 
BRANCH  26  27
HETATM   27  C17 UNL     1      22.501   3.495  50.682  1.00  0.00     0.274 C 
BRANCH  27  28
HETATM   28  N5  UNL     1      23.717   3.364  49.977  1.00  0.00     0.092 N 
HETATM   29  C18 UNL     1      24.915   3.230  50.734  1.00  0.00     0.298 C 
HETATM   30  C19 UNL     1      26.069   3.391  49.745  1.00  0.00     0.198 C 
HETATM   31  O1  UNL     1      26.148   4.654  49.203  1.00  0.00    -0.388 OA
HETATM   32  C20 UNL     1      24.927   5.296  49.034  1.00  0.00     0.198 C 
HETATM   33  C21 UNL     1      23.775   4.346  48.927  1.00  0.00     0.298 C 
ENDBRANCH  27  28
ENDBRANCH  26  27
ENDBRANCH  25  26
ENDBRANCH  11  25
TORSDOF 6
ENDMDL
