ROOT
HETATM    1  C8  UNL     1      23.853   3.546  51.452  1.00  0.00     0.118 A 
HETATM    2  C10 UNL     1      23.070   4.043  50.305  1.00  0.00     0.074 A 
HETATM    3  C11 UNL     1      23.206   5.491  50.182  1.00  0.00     0.099 C 
HETATM    4  N2  UNL     1      23.307   6.661  50.065  1.00  0.00    -0.192 NA
HETATM    5  C12 UNL     1      22.296   3.475  49.398  1.00  0.00     0.137 A 
HETATM    6  N3  UNL     1      22.139   2.044  49.499  1.00  0.00    -0.271 NA
HETATM    7  C13 UNL     1      22.774   1.438  50.471  1.00  0.00     0.126 A 
HETATM    8  C14 UNL     1      23.646   2.070  51.486  1.00  0.00    -0.009 A 
HETATM    9  C15 UNL     1      24.175   1.262  52.383  1.00  0.00    -0.011 C 
ENDROOT
BRANCH   1  10
HETATM   10  N1  UNL     1      25.263   3.857  51.384  1.00  0.00    -0.379 N 
HETATM   11  H9  UNL     1      25.675   4.487  52.138  1.00  0.00     0.160 HD
BRANCH  10  12
HETATM   12  C7  UNL     1      26.157   3.409  50.410  1.00  0.00     0.084 C 
HETATM   13  C6  UNL     1      26.786   3.869  49.343  1.00  0.00     0.017 C 
BRANCH  13  14
HETATM   14  C5  UNL     1      26.616   5.235  48.896  1.00  0.00     0.011 C 
HETATM   15  C3  UNL     1      27.618   5.963  48.379  1.00  0.00    -0.024 C 
HETATM   16  C4  UNL     1      28.973   5.392  48.238  1.00  0.00     0.051 C 
BRANCH  15  17
HETATM   17  C2  UNL     1      27.368   7.340  47.950  1.00  0.00     0.113 C 
HETATM   18  C1  UNL     1      26.190   7.686  47.469  1.00  0.00     0.057 C 
HETATM   19  F1  UNL     1      28.259   8.336  47.999  1.00  0.00    -0.206 F 
ENDBRANCH  15  17
ENDBRANCH  13  14
ENDBRANCH  10  12
ENDBRANCH   1  10
BRANCH   1  20
HETATM   20  C9  UNL     1      23.210   4.126  52.695  1.00  0.00     0.206 C 
BRANCH  20  21
HETATM   21  O1  UNL     1      24.140   4.829  53.459  1.00  0.00    -0.398 OA
HETATM   22  H12 UNL     1      23.920   5.794  53.475  1.00  0.00     0.209 HD
ENDBRANCH  20  21
ENDBRANCH   1  20
BRANCH   9  23
HETATM   23  C16 UNL     1      24.419  -0.031  52.994  1.00  0.00     0.068 C 
BRANCH  23  24
HETATM   24  C17 UNL     1      25.850  -0.418  53.135  1.00  0.00    -0.030 A 
HETATM   25  C18 UNL     1      26.727   0.372  53.737  1.00  0.00     0.038 A 
HETATM   26  C19 UNL     1      26.673   1.703  54.394  1.00  0.00     0.225 C 
HETATM   27  N4  UNL     1      28.071  -0.109  53.806  1.00  0.00    -0.376 N 
HETATM   28  O2  UNL     1      27.626   2.592  53.955  1.00  0.00    -0.384 OA
HETATM   29  C20 UNL     1      28.904   2.108  53.863  1.00  0.00     0.188 C 
HETATM   30  C21 UNL     1      28.988   0.754  54.529  1.00  0.00     0.149 C 
HETATM   31  C22 UNL     1      28.603  -1.330  53.247  1.00  0.00     0.150 A 
HETATM   32  C23 UNL     1      27.563  -2.152  52.593  1.00  0.00    -0.007 A 
HETATM   33  C24 UNL     1      26.338  -1.674  52.581  1.00  0.00     0.007 A 
ENDBRANCH  23  24
ENDBRANCH   9  23
TORSDOF 8
ENDMDL
