ROOT
HETATM    1  C3  UNL     1      20.360  -0.033  53.702  1.00  0.00     0.319 A 
HETATM    2  O2  UNL     1      20.265   0.726  52.518  1.00  0.00    -0.326 OA
HETATM    3  C4  UNL     1      21.387   1.092  51.794  1.00  0.00     0.139 A 
HETATM    4  C5  UNL     1      22.659   0.802  52.087  1.00  0.00     0.041 A 
HETATM    5  C6  UNL     1      22.908   0.029  53.276  1.00  0.00     0.041 A 
HETATM    6  C7  UNL     1      24.171  -0.324  53.693  1.00  0.00     0.141 A 
HETATM    7  N2  UNL     1      24.262  -1.039  54.830  1.00  0.00    -0.224 NA
HETATM    8  C15 UNL     1      23.179  -1.400  55.541  1.00  0.00     0.235 A 
HETATM    9  N3  UNL     1      21.947  -1.053  55.131  1.00  0.00    -0.240 NA
HETATM   10  C16 UNL     1      21.783  -0.330  53.989  1.00  0.00     0.105 A 
ENDROOT
BRANCH   6  11
HETATM   11  N1  UNL     1      25.214   0.119  52.842  1.00  0.00    -0.340 N 
HETATM   12  H9  UNL     1      24.771   0.124  51.896  1.00  0.00     0.167 HD
BRANCH  11  13
HETATM   13  C8  UNL     1      26.545   0.486  53.106  1.00  0.00     0.034 A 
HETATM   14  C9  UNL     1      26.785   1.847  53.257  1.00  0.00     0.029 A 
HETATM   15  C10 UNL     1      28.082   2.231  53.528  1.00  0.00     0.003 A 
HETATM   16  C11 UNL     1      29.062   1.263  53.635  1.00  0.00     0.007 A 
HETATM   17  C12 UNL     1      28.812  -0.098  53.482  1.00  0.00    -0.060 A 
HETATM   18  C13 UNL     1      29.960  -1.043  53.626  1.00  0.00     0.048 C 
HETATM   19  C14 UNL     1      27.504  -0.489  53.208  1.00  0.00     0.036 A 
ENDBRANCH  11  13
ENDBRANCH   6  11
BRANCH   1  20
HETATM   20  O1  UNL     1      19.578  -1.175  53.504  1.00  0.00    -0.355 OA
BRANCH  20  21
HETATM   21  C2  UNL     1      18.454  -0.714  52.788  1.00  0.00     0.167 C 
HETATM   22  C1  UNL     1      17.221  -1.542  53.078  1.00  0.00     0.033 C 
ENDBRANCH  20  21
ENDBRANCH   1  20
TORSDOF 4
ENDMDL
