ROOT
HETATM    1  N1  UNL     1      25.682  -0.426  52.877  1.00  0.00    -0.342 N 
HETATM    2  H9  UNL     1      25.653  -0.886  51.943  1.00  0.00     0.167 HD
ENDROOT
BRANCH   1   3
HETATM    3  C9  UNL     1      24.732  -0.800  53.863  1.00  0.00     0.131 A 
HETATM    4  C8  UNL     1      23.404  -0.922  53.533  1.00  0.00     0.082 A 
HETATM    5  C7  UNL     1      22.403  -1.274  54.408  1.00  0.00     0.061 A 
HETATM    6  N3  UNL     1      22.769  -1.513  55.672  1.00  0.00    -0.242 NA
HETATM    7  C21 UNL     1      24.058  -1.401  56.019  1.00  0.00     0.235 A 
HETATM    8  N2  UNL     1      25.022  -1.056  55.150  1.00  0.00    -0.224 NA
BRANCH   5   9
HETATM    9  C6  UNL     1      21.042  -1.363  53.918  1.00  0.00     0.032 C 
HETATM   10  C5  UNL     1      20.361  -0.411  53.312  1.00  0.00     0.002 C 
BRANCH  10  11
HETATM   11  C4  UNL     1      20.603   0.963  52.907  1.00  0.00     0.000 C 
HETATM   12  C3  UNL     1      21.101   1.524  51.838  1.00  0.00    -0.001 C 
BRANCH  12  13
HETATM   13  C2  UNL     1      21.560   0.724  50.717  1.00  0.00    -0.010 C 
HETATM   14  C1  UNL     1      21.642   1.283  49.514  1.00  0.00     0.011 C 
ENDBRANCH  12  13
ENDBRANCH  10  11
ENDBRANCH   5   9
ENDBRANCH   1   3
BRANCH   1  15
HETATM   15  C10 UNL     1      26.706   0.520  52.989  1.00  0.00     0.045 A 
HETATM   16  C11 UNL     1      27.566   0.249  53.975  1.00  0.00     0.030 A 
HETATM   17  C12 UNL     1      28.684   1.167  54.196  1.00  0.00     0.026 A 
HETATM   18  C13 UNL     1      28.842   2.241  53.437  1.00  0.00     0.136 A 
HETATM   19  O1  UNL     1      27.936   2.493  52.426  1.00  0.00    -0.347 OA
HETATM   20  C14 UNL     1      26.839   1.693  52.125  1.00  0.00     0.210 A 
BRANCH  20  21
HETATM   21  C15 UNL     1      25.623   2.530  52.013  1.00  0.00    -0.020 A 
HETATM   22  C16 UNL     1      24.723   2.953  52.960  1.00  0.00     0.010 A 
HETATM   23  C17 UNL     1      23.654   3.739  52.588  1.00  0.00     0.004 A 
HETATM   24  C18 UNL     1      23.408   4.151  51.295  1.00  0.00     0.042 A 
HETATM   25  C19 UNL     1      24.320   3.719  50.355  1.00  0.00     0.117 A 
HETATM   26  F1  UNL     1      24.078   4.127  49.069  1.00  0.00    -0.206 F 
HETATM   27  C20 UNL     1      25.417   2.920  50.697  1.00  0.00     0.052 A 
ENDBRANCH  20  21
ENDBRANCH   1  15
TORSDOF 6
ENDMDL
