ROOT
HETATM    1  O1  UNL     1      27.542   4.339  49.127  1.00  0.00    -0.271 OA
HETATM    2  C1  UNL     1      26.396   4.258  49.667  1.00  0.00     0.244 C 
HETATM    3  N3  UNL     1      26.316   3.552  50.899  1.00  0.00    -0.229 N 
HETATM    4  H14 UNL     1      25.562   3.309  51.578  1.00  0.00     0.198 HD
ENDROOT
BRANCH   2   5
HETATM    5  C2  UNL     1      25.015   4.745  49.322  1.00  0.00     0.132 C 
BRANCH   5   6
HETATM    6  C3  UNL     1      24.217   3.538  49.009  1.00  0.00    -0.017 C 
HETATM    7  C4  UNL     1      23.122   3.087  49.583  1.00  0.00    -0.002 C 
BRANCH   7   8
HETATM    8  C5  UNL     1      22.497   3.778  50.699  1.00  0.00     0.016 C 
HETATM    9  C6  UNL     1      22.486   3.207  51.891  1.00  0.00     0.083 C 
BRANCH   9  10
HETATM   10  N1  UNL     1      23.049   1.936  52.193  1.00  0.00    -0.395 N 
HETATM   11  H7  UNL     1      23.971   1.672  52.561  1.00  0.00     0.159 HD
BRANCH  10  12
HETATM   12  C7  UNL     1      22.035   0.948  51.876  1.00  0.00     0.157 C 
BRANCH  12  13
HETATM   13  C8  UNL     1      21.947  -0.005  53.014  1.00  0.00    -0.038 A 
HETATM   14  C9  UNL     1      23.054  -0.233  53.787  1.00  0.00     0.028 A 
HETATM   15  C10 UNL     1      23.102  -1.090  54.864  1.00  0.00     0.116 A 
HETATM   16  N2  UNL     1      21.952  -1.733  55.146  1.00  0.00    -0.273 NA
HETATM   17  C11 UNL     1      20.829  -1.554  54.425  1.00  0.00     0.116 A 
HETATM   18  C12 UNL     1      20.788  -0.685  53.337  1.00  0.00     0.028 A 
ENDBRANCH  12  13
ENDBRANCH  10  12
ENDBRANCH   9  10
ENDBRANCH   7   8
ENDBRANCH   5   6
ENDBRANCH   2   5
BRANCH   3  19
HETATM   19  O2  UNL     1      27.220   2.903  51.688  1.00  0.00    -0.235 OA
BRANCH  19  20
HETATM   20  C13 UNL     1      27.117   1.558  52.015  1.00  0.00     0.099 A 
HETATM   21  C14 UNL     1      26.117   0.668  51.676  1.00  0.00     0.039 A 
HETATM   22  C15 UNL     1      26.200  -0.643  52.104  1.00  0.00     0.004 A 
HETATM   23  C16 UNL     1      27.262  -1.095  52.868  1.00  0.00     0.016 A 
HETATM   24  C17 UNL     1      28.271  -0.188  53.207  1.00  0.00     0.050 A 
HETATM   25  C19 UNL     1      28.194   1.127  52.781  1.00  0.00     0.055 A 
BRANCH  24  26
HETATM   26  C18 UNL     1      29.422  -0.675  54.034  1.00  0.00     0.417 C 
HETATM   27  F1  UNL     1      29.591  -2.031  53.846  1.00  0.00    -0.166 F 
HETATM   28  F2  UNL     1      29.235  -0.378  55.354  1.00  0.00    -0.166 F 
HETATM   29  F3  UNL     1      30.602  -0.080  53.577  1.00  0.00    -0.166 F 
ENDBRANCH  24  26
ENDBRANCH  19  20
ENDBRANCH   3  19
TORSDOF 9
ENDMDL
