ROOT
HETATM    1  N4  UNL     1      25.921   4.397  49.442  1.00  0.00    -0.156 N 
HETATM    2  C12 UNL     1      25.482   5.729  49.691  1.00  0.00     0.237 C 
HETATM    3  O1  UNL     1      24.982   5.906  50.847  1.00  0.00    -0.273 OA
HETATM    4  H14 UNL     1      26.361   3.921  48.630  1.00  0.00     0.187 HD
ENDROOT
BRANCH   1   5
HETATM    5  C11 UNL     1      25.803   3.345  50.421  1.00  0.00     0.729 A 
HETATM    6  N3  UNL     1      26.974   2.978  50.974  1.00  0.00    -0.074 NA
HETATM    7  C10 UNL     1      26.990   1.994  51.913  1.00  0.00     0.146 A 
HETATM    8  C9  UNL     1      25.787   1.381  52.285  1.00  0.00    -0.008 A 
HETATM    9  C8  UNL     1      25.983   0.336  53.313  1.00  0.00     0.047 A 
HETATM   10  C20 UNL     1      24.633   1.811  51.674  1.00  0.00     0.112 A 
HETATM   11  C7  UNL     1      24.716  -0.329  53.722  1.00  0.00     0.048 A 
HETATM   12  C6  UNL     1      23.503   0.178  53.029  1.00  0.00    -0.001 A 
HETATM   13  C3  UNL     1      22.225  -0.280  53.239  1.00  0.00     0.063 A 
HETATM   14  C5  UNL     1      23.398   1.160  52.076  1.00  0.00     0.090 A 
HETATM   15  N1  UNL     1      21.416   0.419  52.433  1.00  0.00    -0.176 NA
HETATM   16  N2  UNL     1      22.108   1.299  51.719  1.00  0.00    -0.271 N 
HETATM   17  C4  UNL     1      21.617   2.231  50.747  1.00  0.00     0.180 C 
HETATM   18  N7  UNL     1      24.649   2.786  50.750  1.00  0.00    -0.060 NA
BRANCH  13  19
HETATM   19  C2  UNL     1      21.725  -1.342  54.161  1.00  0.00     0.057 C 
HETATM   20  C1  UNL     1      20.258  -1.582  54.018  1.00  0.00     0.011 C 
ENDBRANCH  13  19
ENDBRANCH   1   5
BRANCH   2  21
HETATM   21  C13 UNL     1      25.717   6.609  48.520  1.00  0.00     0.123 C 
BRANCH  21  22
HETATM   22  C14 UNL     1      26.551   7.802  48.848  1.00  0.00     0.132 C 
BRANCH  22  23
HETATM   23  N5  UNL     1      27.946   7.456  49.045  1.00  0.00    -0.359 N 
HETATM   24  C15 UNL     1      28.991   8.408  48.880  1.00  0.00     0.236 C 
HETATM   25  O2  UNL     1      28.788   9.607  48.554  1.00  0.00    -0.272 OA
HETATM   26  H19 UNL     1      28.271   6.513  49.314  1.00  0.00     0.162 HD
BRANCH  24  27
HETATM   27  C16 UNL     1      30.438   8.187  49.049  1.00  0.00     0.167 C 
HETATM   28  C17 UNL     1      31.336   9.326  48.566  1.00  0.00     0.046 C 
HETATM   29  C18 UNL     1      32.292   8.154  48.323  1.00  0.00     0.110 C 
HETATM   30  N6  UNL     1      31.080   7.381  48.009  1.00  0.00    -0.197 NA
BRANCH  30  31
HETATM   31  S1  UNL     1      31.224   5.712  48.428  1.00  0.00     0.208 S 
HETATM   32  C19 UNL     1      32.442   4.886  47.458  1.00  0.00     0.180 C 
HETATM   33  O3  UNL     1      31.555   5.511  49.878  1.00  0.00    -0.212 OA
HETATM   34  O4  UNL     1      29.850   5.104  48.204  1.00  0.00    -0.212 OA
ENDBRANCH  30  31
ENDBRANCH  24  27
ENDBRANCH  22  23
ENDBRANCH  21  22
ENDBRANCH   2  21
TORSDOF 7
ENDMDL
