ROOT
HETATM    1  C1  UNL     1      27.221   0.786  53.556  1.00  0.00     0.220 C 
HETATM    2  C2  UNL     1      26.672  -0.593  53.038  1.00  0.00     0.065 C 
HETATM    3  C3  UNL     1      25.302  -0.341  53.075  1.00  0.00     0.272 C 
HETATM    4  N2  UNL     1      23.976  -0.629  52.898  1.00  0.00     0.087 N 
HETATM    5  C4  UNL     1      23.395   0.645  53.434  1.00  0.00     0.306 C 
HETATM    6  C5  UNL     1      24.058   1.827  52.744  1.00  0.00    -0.020 C 
HETATM    7  C6  UNL     1      23.527   1.964  51.566  1.00  0.00     0.100 A 
HETATM    8  N3  UNL     1      22.508   1.019  51.189  1.00  0.00    -0.273 N 
HETATM    9  N4  UNL     1      21.943   1.155  49.938  1.00  0.00    -0.167 NA
HETATM   10  C7  UNL     1      22.240   2.044  49.080  1.00  0.00     0.257 A 
HETATM   11  N5  UNL     1      23.236   3.023  49.368  1.00  0.00    -0.220 NA
HETATM   12  C8  UNL     1      23.794   2.937  50.530  1.00  0.00     0.158 A 
HETATM   13  C15 UNL     1      25.183   2.448  53.453  1.00  0.00     0.040 C 
HETATM   14  C16 UNL     1      26.533   1.984  53.003  1.00  0.00     0.040 C 
HETATM   15  H8  UNL     1      23.532  -1.412  53.372  1.00  0.00     0.316 HD
HETATM   16  H11 UNL     1      22.079   0.207  51.626  1.00  0.00     0.189 HD
ENDROOT
BRANCH  12  17
HETATM   17  N6  UNL     1      24.734   3.949  50.777  1.00  0.00    -0.339 N 
HETATM   18  H13 UNL     1      24.658   4.298  51.752  1.00  0.00     0.167 HD
BRANCH  17  19
HETATM   19  C9  UNL     1      25.696   4.534  49.984  1.00  0.00     0.033 A 
HETATM   20  C10 UNL     1      25.570   5.903  49.687  1.00  0.00     0.029 A 
HETATM   21  C11 UNL     1      26.438   6.641  48.922  1.00  0.00     0.002 A 
HETATM   22  C12 UNL     1      27.542   6.078  48.362  1.00  0.00     0.000 A 
HETATM   23  C13 UNL     1      27.733   4.731  48.611  1.00  0.00     0.002 A 
HETATM   24  C14 UNL     1      26.826   4.017  49.396  1.00  0.00     0.029 A 
ENDBRANCH  17  19
ENDBRANCH  12  17
BRANCH   1  25
HETATM   25  N1  UNL     1      27.346   0.786  54.963  1.00  0.00     0.083 N 
HETATM   26  H1  UNL     1      27.017   1.705  55.333  1.00  0.00     0.313 HD
HETATM   27  H2  UNL     1      26.753   0.053  55.398  1.00  0.00     0.313 HD
ENDBRANCH   1  25
TORSDOF 3
ENDMDL
