ROOT
HETATM    1  C2  UNL     1      26.988   1.348  52.204  1.00  0.00     0.112 C 
HETATM    2  C3  UNL     1      26.178   2.174  51.225  1.00  0.00     0.064 C 
HETATM    3  C4  UNL     1      25.029   2.928  51.118  1.00  0.00     0.013 C 
HETATM    4  C5  UNL     1      23.758   3.508  51.776  1.00  0.00     0.069 C 
HETATM    5  C6  UNL     1      22.745   2.577  51.139  1.00  0.00     0.011 C 
HETATM    6  C7  UNL     1      22.564   2.910  49.843  1.00  0.00     0.027 C 
HETATM    7  C8  UNL     1      23.730   3.290  48.994  1.00  0.00     0.040 C 
HETATM    8  C9  UNL     1      24.919   3.248  49.663  1.00  0.00     0.099 C 
HETATM    9  F1  UNL     1      26.155   3.448  49.131  1.00  0.00    -0.210 F 
HETATM   10  N2  UNL     1      22.011   1.442  51.609  1.00  0.00    -0.344 N 
HETATM   11  C10 UNL     1      22.256   0.510  52.656  1.00  0.00     0.141 A 
HETATM   12  N3  UNL     1      21.250  -0.074  53.316  1.00  0.00    -0.224 NA
HETATM   13  C11 UNL     1      21.443  -0.903  54.359  1.00  0.00     0.236 A 
HETATM   14  N4  UNL     1      22.676  -1.213  54.824  1.00  0.00    -0.241 NA
HETATM   15  C12 UNL     1      23.746  -0.645  54.187  1.00  0.00     0.073 A 
HETATM   16  C13 UNL     1      25.033  -0.915  54.668  1.00  0.00     0.057 A 
HETATM   17  C14 UNL     1      26.145  -0.349  54.098  1.00  0.00     0.043 A 
HETATM   18 CL1  UNL     1      27.827  -0.540  54.541  1.00  0.00    -0.084 Cl
HETATM   19  C15 UNL     1      26.079   0.505  53.035  1.00  0.00    -0.022 A 
HETATM   20  C16 UNL     1      24.736   0.577  52.787  1.00  0.00     0.027 A 
HETATM   21  C17 UNL     1      23.488   0.194  53.125  1.00  0.00     0.039 A 
HETATM   22  H9  UNL     1      21.120   1.233  51.115  1.00  0.00     0.167 HD
ENDROOT
BRANCH   1  23
HETATM   23  C1  UNL     1      27.867   2.231  52.971  1.00  0.00     0.204 C 
HETATM   24  N1  UNL     1      27.143   2.836  54.037  1.00  0.00    -0.272 NA
HETATM   25  H1  UNL     1      27.008   2.846  55.088  1.00  0.00     0.127 HD
HETATM   26  H2  UNL     1      26.995   2.861  55.075  1.00  0.00     0.127 HD
HETATM   27  O1  UNL     1      29.021   2.713  53.117  1.00  0.00    -0.279 OA
ENDBRANCH   1  23
TORSDOF 1
ENDMDL
