ROOT
HETATM    1  C2  UNL     1      27.446   1.445  53.675  1.00  0.00     0.095 A 
HETATM    2  C3  UNL     1      26.327   2.201  53.399  1.00  0.00     0.052 A 
HETATM    3  C4  UNL     1      25.131   1.490  53.291  1.00  0.00     0.044 A 
HETATM    4  C5  UNL     1      24.008   2.238  53.015  1.00  0.00     0.163 A 
HETATM    5  N2  UNL     1      22.803   1.616  52.894  1.00  0.00    -0.222 NA
HETATM    6  C12 UNL     1      22.768   0.262  53.056  1.00  0.00     0.236 A 
HETATM    7  N3  UNL     1      23.860  -0.474  53.325  1.00  0.00    -0.240 NA
HETATM    8  C13 UNL     1      25.068   0.119  53.450  1.00  0.00     0.089 A 
HETATM    9  C14 UNL     1      26.223  -0.563  53.723  1.00  0.00     0.150 A 
HETATM   10  N4  UNL     1      27.367   0.111  53.827  1.00  0.00    -0.256 NA
ENDROOT
BRANCH   4  11
HETATM   11  N1  UNL     1      23.942   3.633  52.832  1.00  0.00    -0.229 NA
BRANCH  11  12
HETATM   12  P1  UNL     1      23.610   4.363  51.422  1.00  0.00     0.101 P 
BRANCH  12  13
HETATM   13  C6  UNL     1      25.012   4.811  50.331  1.00  0.00    -0.001 A 
HETATM   14  C7  UNL     1      25.878   3.740  50.091  1.00  0.00     0.017 A 
HETATM   15  C8  UNL     1      27.005   3.869  49.287  1.00  0.00     0.045 A 
HETATM   16  C9  UNL     1      27.250   5.107  48.722  1.00  0.00     0.138 A 
HETATM   17  F1  UNL     1      28.331   5.293  47.932  1.00  0.00    -0.204 F 
HETATM   18  C10 UNL     1      26.397   6.167  48.957  1.00  0.00     0.073 A 
HETATM   19 CL1  UNL     1      26.672   7.764  48.256  1.00  0.00    -0.081 Cl
HETATM   20  C11 UNL     1      25.278   6.031  49.757  1.00  0.00     0.041 A 
ENDBRANCH  12  13
ENDBRANCH  11  12
ENDBRANCH   4  11
BRANCH   1  21
HETATM   21  C1  UNL     1      28.724   2.110  53.803  1.00  0.00     0.290 C 
HETATM   22  O1  UNL     1      29.385   2.279  54.860  1.00  0.00    -0.300 OA
ENDBRANCH   1  21
TORSDOF 4
ENDMDL
