ROOT
HETATM    1  C2  UNL     1      20.176   3.030  52.387  1.00  0.00     0.129 C 
HETATM    2  C3  UNL     1      20.733   4.129  51.954  1.00  0.00     0.061 C 
HETATM    3  C4  UNL     1      21.980   4.789  51.659  1.00  0.00    -0.001 C 
HETATM    4  C5  UNL     1      23.267   5.011  51.524  1.00  0.00     0.085 C 
HETATM    5  N1  UNL     1      24.631   4.652  51.603  1.00  0.00    -0.361 N 
HETATM    6  C6  UNL     1      25.226   4.095  50.461  1.00  0.00     0.206 C 
HETATM    7  N2  UNL     1      24.957   3.471  49.384  1.00  0.00    -0.255 NA
HETATM    8  C7  UNL     1      23.598   3.176  49.140  1.00  0.00     0.135 C 
HETATM    9  C8  UNL     1      22.665   2.294  48.888  1.00  0.00     0.109 C 
HETATM   10  N3  UNL     1      21.585   1.462  48.619  1.00  0.00    -0.351 N 
HETATM   11  C9  UNL     1      20.915   0.856  49.756  1.00  0.00     0.099 C 
HETATM   12  C10 UNL     1      21.596   0.472  50.831  1.00  0.00     0.027 C 
HETATM   13  C11 UNL     1      21.396  -0.138  52.129  1.00  0.00     0.025 C 
HETATM   14  C12 UNL     1      22.592  -0.788  52.745  1.00  0.00     0.036 C 
HETATM   15  C13 UNL     1      22.058  -0.944  54.165  1.00  0.00    -0.029 C 
HETATM   16  C14 UNL     1      21.228   0.102  54.417  1.00  0.00    -0.023 C 
HETATM   17  C15 UNL     1      21.176   0.967  53.225  1.00  0.00     0.048 C 
HETATM   18  C16 UNL     1      19.879   1.632  52.923  1.00  0.00     0.170 C 
HETATM   19  O2  UNL     1      19.240   0.977  51.910  1.00  0.00    -0.358 OA
HETATM   20  C17 UNL     1      17.892   0.791  51.966  1.00  0.00     0.340 C 
HETATM   21  O3  UNL     1      17.573   0.036  50.830  1.00  0.00    -0.348 OA
HETATM   22  C18 UNL     1      18.010   0.660  49.677  1.00  0.00     0.294 C 
HETATM   23  N4  UNL     1      19.482   0.704  49.655  1.00  0.00    -0.355 N 
HETATM   24  H7  UNL     1      25.238   4.756  52.420  1.00  0.00     0.166 HD
HETATM   25  H11 UNL     1      21.278   1.284  47.661  1.00  0.00     0.166 HD
HETATM   26  H24 UNL     1      19.727  -0.035  48.919  1.00  0.00     0.163 HD
ENDROOT
BRANCH   1  27
HETATM   27  O1  UNL     1      19.065   3.838  52.128  1.00  0.00    -0.378 OA
HETATM   28  C1  UNL     1      18.627   4.173  50.827  1.00  0.00     0.202 C 
ENDBRANCH   1  27
TORSDOF 1
ENDMDL
