ROOT
HETATM    1  O1  UNL     1      22.553  -1.642  55.450  1.00  0.00    -0.292 OA
HETATM    2  C1  UNL     1      22.866  -0.751  54.570  1.00  0.00     0.163 C 
HETATM    3  C2  UNL     1      24.291  -0.965  54.421  1.00  0.00     0.034 C 
HETATM    4  C3  UNL     1      25.482  -0.723  53.930  1.00  0.00     0.045 C 
HETATM    5  C4  UNL     1      26.562  -0.124  53.155  1.00  0.00    -0.019 C 
HETATM    6  C5  UNL     1      27.040   0.752  52.291  1.00  0.00    -0.004 C 
HETATM    7  C6  UNL     1      26.143   1.757  51.653  1.00  0.00     0.197 C 
HETATM    8  O2  UNL     1      24.857   1.643  52.069  1.00  0.00    -0.363 OA
HETATM    9  C7  UNL     1      24.036   2.579  51.486  1.00  0.00     0.127 C 
HETATM   10  C8  UNL     1      23.695   3.612  52.510  1.00  0.00     0.032 C 
HETATM   11  C9  UNL     1      23.430   4.895  52.338  1.00  0.00    -0.026 C 
HETATM   12  C10 UNL     1      23.957   5.449  51.289  1.00  0.00     0.012 C 
HETATM   13  C11 UNL     1      24.624   4.640  50.257  1.00  0.00     0.000 C 
HETATM   14  C12 UNL     1      24.648   3.301  50.370  1.00  0.00     0.020 C 
HETATM   15  C13 UNL     1      22.785   1.861  51.050  1.00  0.00     0.010 A 
HETATM   16  C14 UNL     1      22.545   1.872  49.693  1.00  0.00     0.013 A 
HETATM   17  C15 UNL     1      21.476   1.313  49.036  1.00  0.00     0.001 A 
HETATM   18  C16 UNL     1      20.527   0.668  49.798  1.00  0.00     0.002 A 
HETATM   19  C17 UNL     1      20.780   0.664  51.172  1.00  0.00     0.030 A 
HETATM   20  C18 UNL     1      21.884   1.242  51.827  1.00  0.00     0.038 A 
HETATM   21  N1  UNL     1      21.674   0.947  53.191  1.00  0.00    -0.382 N 
HETATM   22  C19 UNL     1      21.658  -0.048  54.226  1.00  0.00     0.202 C 
HETATM   23  H15 UNL     1      21.421   1.943  53.315  1.00  0.00     0.160 HD
ENDROOT
TORSDOF 0
ENDMDL
