ROOT
HETATM    1  C2  UNL     1      25.810   2.033  51.945  1.00  0.00     0.061 C 
HETATM    2  C3  UNL     1      26.858   1.781  52.781  1.00  0.00     0.038 C 
HETATM    3  C4  UNL     1      27.352   0.870  53.803  1.00  0.00     0.117 A 
HETATM    4  C5  UNL     1      28.794   1.317  54.033  1.00  0.00     0.011 A 
HETATM    5  C6  UNL     1      29.899   0.647  53.823  1.00  0.00    -0.022 A 
HETATM    6  C7  UNL     1      29.868  -0.725  53.299  1.00  0.00     0.078 A 
HETATM    7  C8  UNL     1      28.518  -1.284  53.153  1.00  0.00     0.021 A 
HETATM    8 CL1  UNL     1      28.392  -2.964  52.658  1.00  0.00    -0.088 Cl
HETATM    9  C9  UNL     1      27.413  -0.577  53.376  1.00  0.00    -0.019 A 
HETATM   10  C10 UNL     1      26.199  -1.474  53.126  1.00  0.00     0.098 C 
HETATM   11  C11 UNL     1      24.981  -0.605  53.467  1.00  0.00     0.042 C 
HETATM   12  N1  UNL     1      24.645  -0.511  54.764  1.00  0.00    -0.247 NA
HETATM   13  C12 UNL     1      25.700   0.216  55.602  1.00  0.00     0.229 C 
HETATM   14  N2  UNL     1      26.808   0.890  55.151  1.00  0.00    -0.259 NA
HETATM   15  C13 UNL     1      24.027   0.321  52.693  1.00  0.00     0.065 C 
HETATM   16  C14 UNL     1      24.469   1.328  51.815  1.00  0.00     0.088 C 
ENDROOT
BRANCH   1  17
HETATM   17  S1  UNL     1      25.636   3.291  50.740  1.00  0.00     0.030 SA
BRANCH  17  18
HETATM   18  O1  UNL     1      27.159   3.691  50.099  1.00  0.00    -0.320 OA
HETATM   19  C1  UNL     1      27.087   4.532  49.004  1.00  0.00     0.220 C 
ENDBRANCH  17  18
ENDBRANCH   1  17
BRANCH  16  20
HETATM   20  O2  UNL     1      23.436   1.389  51.002  1.00  0.00    -0.354 OA
HETATM   21  C15 UNL     1      22.137   1.001  51.341  1.00  0.00     0.210 C 
ENDBRANCH  16  20
TORSDOF 3
ENDMDL
