ROOT
HETATM    1  C7  UNL     1      24.255   1.546  52.299  1.00  0.00     0.091 A 
HETATM    2  C8  UNL     1      23.079   2.085  52.739  1.00  0.00     0.041 A 
HETATM    3  C9  UNL     1      22.750   3.416  52.663  1.00  0.00     0.033 A 
HETATM    4  C10 UNL     1      23.647   4.304  52.109  1.00  0.00     0.044 A 
HETATM    5  C17 UNL     1      24.852   3.828  51.645  1.00  0.00     0.057 A 
HETATM    6  C18 UNL     1      25.148   2.480  51.739  1.00  0.00     0.069 A 
HETATM    7 CL1  UNL     1      26.755   2.127  51.073  1.00  0.00    -0.081 Cl
ENDROOT
BRANCH   4   8
HETATM    8  N1  UNL     1      23.291   5.679  52.039  1.00  0.00    -0.319 N 
HETATM    9  H8  UNL     1      22.298   5.979  52.120  1.00  0.00     0.181 HD
BRANCH   8  10
HETATM   10  N2  UNL     1      24.283   6.618  51.860  1.00  0.00    -0.209 NA
HETATM   11  H9  UNL     1      25.246   6.249  52.034  1.00  0.00     0.149 HD
BRANCH  10  12
HETATM   12  C11 UNL     1      24.187   7.362  50.642  1.00  0.00     0.251 A 
HETATM   13  N3  UNL     1      23.796   6.883  49.434  1.00  0.00    -0.262 NA
HETATM   14  C12 UNL     1      25.079   6.922  49.528  1.00  0.00     0.082 A 
BRANCH  14  15
HETATM   15  C13 UNL     1      26.433   6.733  49.046  1.00  0.00    -0.001 A 
HETATM   16  C14 UNL     1      26.668   5.407  48.943  1.00  0.00     0.021 A 
HETATM   17  C15 UNL     1      27.965   4.966  48.477  1.00  0.00     0.050 A 
HETATM   18  S1  UNL     1      28.858   6.620  48.184  1.00  0.00    -0.113 SA
HETATM   19  C16 UNL     1      27.461   7.691  48.696  1.00  0.00     0.063 A 
ENDBRANCH  14  15
ENDBRANCH  10  12
ENDBRANCH   8  10
ENDBRANCH   4   8
BRANCH   1  20
HETATM   20  O1  UNL     1      24.838   0.322  52.242  1.00  0.00    -0.345 OA
BRANCH  20  21
HETATM   21  C6  UNL     1      25.220  -0.558  53.225  1.00  0.00     0.214 C 
BRANCH  21  22
HETATM   22  C5  UNL     1      26.672  -0.760  53.333  1.00  0.00    -0.031 A 
HETATM   23  C4  UNL     1      27.528  -1.711  52.843  1.00  0.00     0.009 A 
HETATM   24  C3  UNL     1      28.876  -1.690  53.102  1.00  0.00     0.004 A 
HETATM   25  C2  UNL     1      29.452  -0.717  53.865  1.00  0.00     0.042 A 
HETATM   26  C1  UNL     1      28.626   0.266  54.383  1.00  0.00     0.117 A 
HETATM   27  F1  UNL     1      29.230   1.212  55.133  1.00  0.00    -0.206 F 
HETATM   28  C19 UNL     1      27.267   0.239  54.119  1.00  0.00     0.051 A 
ENDBRANCH  21  22
ENDBRANCH  20  21
ENDBRANCH   1  20
TORSDOF 7
ENDMDL
