ROOT
HETATM    1  C5  UNL     1      21.685  -0.747  53.803  1.00  0.00     0.084 A 
HETATM    2  C6  UNL     1      22.986  -0.419  53.488  1.00  0.00     0.124 A 
HETATM    3  N1  UNL     1      23.846  -0.796  54.453  1.00  0.00    -0.347 N 
HETATM    4  C13 UNL     1      23.076  -1.376  55.401  1.00  0.00     0.210 A 
HETATM    5  N3  UNL     1      21.783  -1.350  55.018  1.00  0.00    -0.242 NA
ENDROOT
BRANCH   3   6
HETATM    6  C7  UNL     1      25.275  -0.668  54.564  1.00  0.00     0.159 C 
BRANCH   6   7
HETATM    7  C8  UNL     1      25.946  -0.666  53.214  1.00  0.00     0.292 C 
BRANCH   7   8
HETATM    8  N2  UNL     1      27.269  -0.076  53.228  1.00  0.00     0.094 N 
HETATM    9  C9  UNL     1      27.291   1.148  52.481  1.00  0.00     0.298 C 
HETATM   10  C10 UNL     1      27.328   2.296  53.479  1.00  0.00     0.198 C 
HETATM   11  O1  UNL     1      28.564   2.281  54.096  1.00  0.00    -0.388 OA
HETATM   12  C11 UNL     1      28.973   1.037  54.522  1.00  0.00     0.198 C 
HETATM   13  C12 UNL     1      27.817   0.047  54.557  1.00  0.00     0.298 C 
ENDBRANCH   7   8
ENDBRANCH   6   7
ENDBRANCH   3   6
BRANCH   1  14
HETATM   14  C4  UNL     1      20.473  -0.508  53.020  1.00  0.00    -0.006 A 
HETATM   15  C3  UNL     1      20.481   0.255  51.856  1.00  0.00     0.017 A 
HETATM   16  C2  UNL     1      19.290   0.447  51.152  1.00  0.00     0.043 A 
HETATM   17  C1  UNL     1      18.152  -0.138  51.655  1.00  0.00     0.116 A 
HETATM   18  F1  UNL     1      16.966   0.033  50.986  1.00  0.00    -0.206 F 
HETATM   19  C15 UNL     1      18.079  -0.902  52.799  1.00  0.00     0.043 A 
HETATM   20  C14 UNL     1      19.294  -1.068  53.471  1.00  0.00     0.017 A 
ENDBRANCH   1  14
TORSDOF 4
ENDMDL
