ROOT
HETATM    1  C2  UNL     1      24.933   4.269  49.167  1.00  0.00     0.222 A 
HETATM    2  C3  UNL     1      26.392   4.332  49.349  1.00  0.00     0.043 A 
HETATM    3  C12 UNL     1      26.768   3.439  50.287  1.00  0.00     0.042 A 
HETATM    4  C13 UNL     1      25.669   2.694  50.834  1.00  0.00     0.005 A 
HETATM    5  C14 UNL     1      25.472   1.707  51.771  1.00  0.00    -0.012 A 
HETATM    6  C21 UNL     1      24.202   1.231  52.029  1.00  0.00     0.032 A 
HETATM    7  C22 UNL     1      23.124   1.750  51.339  1.00  0.00     0.118 A 
HETATM    8  N4  UNL     1      23.331   2.719  50.421  1.00  0.00    -0.262 NA
HETATM    9  C23 UNL     1      24.573   3.187  50.168  1.00  0.00     0.080 A 
ENDROOT
BRANCH   2  10
HETATM   10  N1  UNL     1      27.418   5.141  48.721  1.00  0.00    -0.370 N 
HETATM   11  H5  UNL     1      28.330   4.713  48.463  1.00  0.00     0.161 HD
BRANCH  10  12
HETATM   12  C4  UNL     1      27.012   6.510  48.537  1.00  0.00     0.176 C 
BRANCH  12  13
HETATM   13  N2  UNL     1      26.745   7.105  49.833  1.00  0.00    -0.411 N 
HETATM   14  H7  UNL     1      26.494   6.433  50.564  1.00  0.00     0.151 HD
HETATM   15  H8  UNL     1      26.207   7.975  49.781  1.00  0.00     0.151 HD
ENDBRANCH  12  13
BRANCH  12  16
HETATM   16  C5  UNL     1      27.956   7.399  47.825  1.00  0.00     0.071 C 
BRANCH  16  17
HETATM   17  C6  UNL     1      29.130   7.919  48.573  1.00  0.00     0.086 C 
HETATM   18  C7  UNL     1      29.258   9.393  48.709  1.00  0.00     0.032 C 
BRANCH  17  19
HETATM   19  N3  UNL     1      30.319   7.470  47.822  1.00  0.00    -0.344 N 
HETATM   20  C8  UNL     1      30.957   8.164  46.741  1.00  0.00     0.152 C 
HETATM   21  C9  UNL     1      31.679   7.124  45.877  1.00  0.00     0.188 C 
HETATM   22  O2  UNL     1      32.756   6.695  46.656  1.00  0.00    -0.380 OA
HETATM   23  C10 UNL     1      32.250   5.805  47.601  1.00  0.00     0.270 C 
HETATM   24  C11 UNL     1      30.939   6.233  48.160  1.00  0.00     0.243 C 
HETATM   25  O3  UNL     1      30.414   5.414  48.960  1.00  0.00    -0.271 OA
ENDBRANCH  17  19
ENDBRANCH  16  17
ENDBRANCH  12  16
ENDBRANCH  10  12
ENDBRANCH   2  10
BRANCH   1  26
HETATM   26  O1  UNL     1      24.267   5.411  49.603  1.00  0.00    -0.378 OA
HETATM   27  C1  UNL     1      23.399   5.852  48.644  1.00  0.00     0.203 C 
ENDBRANCH   1  26
BRANCH   5  28
HETATM   28  C15 UNL     1      26.630   1.178  52.478  1.00  0.00    -0.023 A 
HETATM   29  C16 UNL     1      27.594   1.813  53.232  1.00  0.00     0.015 A 
HETATM   30  C17 UNL     1      28.598   1.065  53.805  1.00  0.00     0.045 A 
HETATM   31  C18 UNL     1      28.694  -0.291  53.667  1.00  0.00     0.138 A 
HETATM   32  F1  UNL     1      29.751  -0.877  54.300  1.00  0.00    -0.204 F 
HETATM   33  C19 UNL     1      27.732  -0.936  52.913  1.00  0.00     0.073 A 
HETATM   34 CL1  UNL     1      27.895  -2.673  52.764  1.00  0.00    -0.081 Cl
HETATM   35  C20 UNL     1      26.715  -0.210  52.328  1.00  0.00     0.039 A 
ENDBRANCH   5  28
TORSDOF 8
ENDMDL
