ROOT
HETATM    1  C9  UNL     1      26.202  -0.255  53.016  1.00  0.00     0.035 A 
HETATM    2  C10 UNL     1      26.750  -1.448  52.660  1.00  0.00     0.032 A 
HETATM    3  C11 UNL     1      28.089  -1.629  52.918  1.00  0.00     0.046 A 
HETATM    4  C12 UNL     1      28.852  -0.648  53.512  1.00  0.00     0.137 A 
HETATM    5  F1  UNL     1      30.154  -0.957  53.708  1.00  0.00    -0.204 F 
HETATM    6  C13 UNL     1      28.313   0.560  53.876  1.00  0.00     0.085 A 
HETATM    7  C14 UNL     1      29.152   1.548  54.509  1.00  0.00     0.102 C 
HETATM    8  N4  UNL     1      29.833   2.340  54.999  1.00  0.00    -0.191 NA
HETATM    9  C15 UNL     1      26.980   0.722  53.611  1.00  0.00     0.055 A 
ENDROOT
BRANCH   1  10
HETATM   10  N3  UNL     1      24.815  -0.055  52.780  1.00  0.00    -0.340 N 
HETATM   11  H10 UNL     1      24.492   0.301  51.835  1.00  0.00     0.167 HD
BRANCH  10  12
HETATM   12  C8  UNL     1      23.557  -0.183  53.430  1.00  0.00     0.144 A 
HETATM   13  N2  UNL     1      23.326  -1.183  54.323  1.00  0.00    -0.223 NA
HETATM   14  C7  UNL     1      22.101  -1.278  54.905  1.00  0.00     0.236 A 
HETATM   15  N1  UNL     1      21.132  -0.402  54.606  1.00  0.00    -0.241 NA
HETATM   16  C6  UNL     1      21.274   0.613  53.737  1.00  0.00     0.077 A 
HETATM   17  C5  UNL     1      20.240   1.481  53.456  1.00  0.00     0.072 A 
HETATM   18  C16 UNL     1      22.533   0.726  53.129  1.00  0.00     0.075 A 
HETATM   19  C4  UNL     1      20.437   2.496  52.550  1.00  0.00     0.107 A 
HETATM   20  C18 UNL     1      21.679   2.644  51.922  1.00  0.00     0.136 A 
HETATM   21  C17 UNL     1      22.711   1.755  52.220  1.00  0.00     0.121 A 
HETATM   22  O3  UNL     1      22.106   3.577  50.991  1.00  0.00    -0.344 OA
HETATM   23  O4  UNL     1      23.970   1.880  51.603  1.00  0.00    -0.345 OA
HETATM   24  C20 UNL     1      24.488   3.173  51.294  1.00  0.00     0.202 C 
HETATM   25  C19 UNL     1      23.393   4.193  51.174  1.00  0.00     0.202 C 
BRANCH  19  26
HETATM   26  O2  UNL     1      19.532   3.427  52.157  1.00  0.00    -0.346 OA
BRANCH  26  27
HETATM   27  C3  UNL     1      18.620   3.378  51.102  1.00  0.00     0.201 C 
BRANCH  27  28
HETATM   28  C2  UNL     1      17.198   3.172  51.590  1.00  0.00     0.193 C 
BRANCH  28  29
HETATM   29  O1  UNL     1      16.722   4.237  52.347  1.00  0.00    -0.394 OA
HETATM   30  C1  UNL     1      15.411   4.021  52.755  1.00  0.00     0.201 C 
ENDBRANCH  28  29
ENDBRANCH  27  28
ENDBRANCH  26  27
ENDBRANCH  19  26
ENDBRANCH  10  12
ENDBRANCH   1  10
TORSDOF 6
ENDMDL
