ROOT
HETATM    1  C1  UNL     1      22.295   1.994  48.984  1.00  0.00     0.005 C 
HETATM    2  C2  UNL     1      22.989   2.881  49.720  1.00  0.00    -0.070 C 
HETATM    3  C3  UNL     1      24.337   3.439  50.005  1.00  0.00     0.070 C 
HETATM    4  C4  UNL     1      24.848   2.628  51.260  1.00  0.00    -0.060 C 
HETATM    5  C5  UNL     1      26.120   2.182  51.085  1.00  0.00     0.004 C 
HETATM    6  C6  UNL     1      27.134   1.373  51.872  1.00  0.00     0.195 C 
HETATM    7  O1  UNL     1      26.536   1.031  53.044  1.00  0.00    -0.387 OA
HETATM    8  C7  UNL     1      27.202   0.262  53.939  1.00  0.00     0.170 C 
HETATM    9  C8  UNL     1      26.343  -0.026  55.153  1.00  0.00     0.052 C 
HETATM   10  C9  UNL     1      25.070  -0.757  54.851  1.00  0.00     0.173 C 
HETATM   11  O2  UNL     1      24.269  -0.050  54.012  1.00  0.00    -0.357 OA
HETATM   12  C10 UNL     1      23.053  -0.658  53.700  1.00  0.00     0.308 C 
HETATM   13  O3  UNL     1      22.290  -0.958  54.788  1.00  0.00    -0.355 OA
HETATM   14  C11 UNL     1      21.126  -1.614  54.315  1.00  0.00     0.197 C 
HETATM   15  C12 UNL     1      20.289  -0.625  53.518  1.00  0.00     0.197 C 
HETATM   16  O4  UNL     1      21.061   0.477  53.155  1.00  0.00    -0.359 OA
HETATM   17  C13 UNL     1      22.298   0.122  52.677  1.00  0.00     0.279 C 
HETATM   18  N1  UNL     1      22.958   1.354  52.298  1.00  0.00    -0.349 N 
HETATM   19  C14 UNL     1      24.052   2.344  52.501  1.00  0.00     0.160 C 
HETATM   20  C15 UNL     1      22.162   1.745  51.151  1.00  0.00     0.013 C 
HETATM   21  C16 UNL     1      21.633   1.085  50.061  1.00  0.00     0.025 C 
HETATM   22  C17 UNL     1      21.826   3.212  50.692  1.00  0.00     0.091 C 
ENDROOT
TORSDOF 0
ENDMDL
