ROOT
HETATM    1  O1  UNL     1      22.720  -1.745  55.663  1.00  0.00    -0.290 OA
HETATM    2  C1  UNL     1      22.648  -1.108  54.597  1.00  0.00     0.179 A 
HETATM    3  C2  UNL     1      21.447  -0.984  53.736  1.00  0.00     0.207 A 
HETATM    4  N1  UNL     1      21.919  -0.087  52.668  1.00  0.00    -0.373 N 
HETATM    5  C10 UNL     1      23.273   0.211  52.888  1.00  0.00     0.045 A 
HETATM    6  C11 UNL     1      24.086   0.985  52.111  1.00  0.00     0.048 A 
HETATM    7  C12 UNL     1      25.410   1.227  52.403  1.00  0.00     0.041 A 
HETATM    8  C13 UNL     1      26.286   2.006  51.645  1.00  0.00     0.142 A 
HETATM    9  N4  UNL     1      27.520   2.100  52.118  1.00  0.00    -0.224 NA
HETATM   10  C20 UNL     1      27.970   1.520  53.231  1.00  0.00     0.236 A 
HETATM   11  N5  UNL     1      27.132   0.762  53.973  1.00  0.00    -0.241 NA
HETATM   12  C21 UNL     1      25.872   0.622  53.559  1.00  0.00     0.073 A 
HETATM   13  C22 UNL     1      25.093  -0.165  54.376  1.00  0.00     0.050 A 
HETATM   14  C23 UNL     1      23.774  -0.373  54.033  1.00  0.00     0.040 A 
ENDROOT
BRANCH   4  15
HETATM   15  C3  UNL     1      20.885   0.212  51.749  1.00  0.00     0.125 C 
BRANCH  15  16
HETATM   16  C4  UNL     1      19.823   1.164  52.159  1.00  0.00     0.050 C 
BRANCH  16  17
HETATM   17  C5  UNL     1      20.439   2.500  52.625  1.00  0.00     0.274 C 
BRANCH  17  18
HETATM   18  N2  UNL     1      20.915   3.303  51.539  1.00  0.00     0.092 N 
HETATM   19  C6  UNL     1      19.830   4.186  51.156  1.00  0.00     0.298 C 
HETATM   20  C7  UNL     1      20.247   5.138  50.055  1.00  0.00     0.198 C 
HETATM   21  O2  UNL     1      21.557   5.583  50.241  1.00  0.00    -0.388 OA
HETATM   22  C8  UNL     1      21.924   5.474  51.582  1.00  0.00     0.198 C 
HETATM   23  C9  UNL     1      22.081   4.036  51.991  1.00  0.00     0.298 C 
ENDBRANCH  17  18
ENDBRANCH  16  17
ENDBRANCH  15  16
ENDBRANCH   4  15
BRANCH   8  24
HETATM   24  N3  UNL     1      25.787   2.607  50.467  1.00  0.00    -0.340 N 
HETATM   25  H18 UNL     1      25.131   2.130  49.839  1.00  0.00     0.167 HD
BRANCH  24  26
HETATM   26  C14 UNL     1      26.084   3.898  49.966  1.00  0.00     0.035 A 
HETATM   27  C15 UNL     1      27.126   4.164  49.111  1.00  0.00     0.029 A 
HETATM   28  C16 UNL     1      27.465   5.385  48.583  1.00  0.00     0.004 A 
HETATM   29  C17 UNL     1      26.678   6.477  48.944  1.00  0.00     0.024 A 
HETATM   30  C18 UNL     1      25.612   6.295  49.799  1.00  0.00     0.036 A 
HETATM   31 CL1  UNL     1      24.584   7.621  50.292  1.00  0.00    -0.084 Cl
HETATM   32  C19 UNL     1      25.362   5.028  50.270  1.00  0.00     0.053 A 
ENDBRANCH  24  26
ENDBRANCH   8  24
TORSDOF 6
ENDMDL
