ROOT
HETATM    1  C4  UNL     1      20.625   2.096  52.285  1.00  0.00     0.381 C 
HETATM    2  C5  UNL     1      22.015   1.497  52.160  1.00  0.00     0.095 C 
HETATM    3  C7  UNL     1      22.924   1.875  53.085  1.00  0.00     0.019 C 
HETATM    4  C8  UNL     1      24.290   1.534  53.266  1.00  0.00     0.044 C 
HETATM    5  C9  UNL     1      24.447   0.079  53.469  1.00  0.00     0.024 C 
HETATM    6  C10 UNL     1      25.689  -0.569  53.934  1.00  0.00     0.037 C 
HETATM    7  C11 UNL     1      26.081  -1.635  52.901  1.00  0.00     0.030 C 
HETATM    8  C12 UNL     1      26.709  -0.939  51.604  1.00  0.00     0.124 C 
HETATM    9  N2  UNL     1      26.818   0.386  52.234  1.00  0.00    -0.377 N 
HETATM   10  C13 UNL     1      27.879   0.053  53.235  1.00  0.00     0.177 C 
HETATM   11  C14 UNL     1      26.795   0.445  54.261  1.00  0.00     0.029 C 
HETATM   12  N3  UNL     1      27.635   1.387  54.657  1.00  0.00    -0.290 NA
HETATM   13  C15 UNL     1      27.697   2.446  53.542  1.00  0.00     0.205 C 
HETATM   14  C16 UNL     1      26.573   1.834  52.664  1.00  0.00     0.032 C 
HETATM   15  C17 UNL     1      25.272   2.203  52.305  1.00  0.00    -0.031 C 
HETATM   16  C18 UNL     1      24.951   3.093  51.188  1.00  0.00     0.153 C 
HETATM   17  N4  UNL     1      24.008   4.074  51.240  1.00  0.00    -0.408 N 
HETATM   18  C19 UNL     1      23.507   4.754  52.339  1.00  0.00     0.119 C 
HETATM   19  C20 UNL     1      21.957   4.765  52.268  1.00  0.00     0.055 C 
HETATM   20  C21 UNL     1      21.606   3.863  51.150  1.00  0.00     0.228 C 
HETATM   21  C22 UNL     1      22.031   4.568  49.882  1.00  0.00     0.055 C 
HETATM   22  C23 UNL     1      23.581   4.615  49.970  1.00  0.00     0.119 C 
HETATM   23  N5  UNL     1      20.440   3.081  51.174  1.00  0.00     0.118 N 
HETATM   24  C24 UNL     1      19.307   3.939  51.584  1.00  0.00     0.313 C 
ENDROOT
BRANCH   1  25
HETATM   25  N1  UNL     1      19.578   1.165  52.316  1.00  0.00    -0.322 N 
HETATM   26  C3  UNL     1      19.433  -0.031  53.051  1.00  0.00     0.242 C 
HETATM   27  O1  UNL     1      20.392  -0.346  53.832  1.00  0.00    -0.269 OA
HETATM   28  H4  UNL     1      18.729   1.354  51.703  1.00  0.00     0.165 HD
BRANCH  26  29
HETATM   29  C2  UNL     1      18.337  -0.976  53.052  1.00  0.00     0.064 C 
HETATM   30  C1  UNL     1      17.327  -0.764  52.221  1.00  0.00     0.017 C 
ENDBRANCH  26  29
ENDBRANCH   1  25
BRANCH   2  31
HETATM   31  O2  UNL     1      22.529   0.612  51.238  1.00  0.00    -0.356 OA
HETATM   32  C6  UNL     1      21.950   0.320  50.007  1.00  0.00     0.209 C 
ENDBRANCH   2  31
TORSDOF 3
ENDMDL
