ROOT
HETATM    1  C2  UNL     1      24.337   1.240  53.337  1.00  0.00     0.097 A 
HETATM    2  C3  UNL     1      23.110   1.335  52.715  1.00  0.00     0.071 A 
HETATM    3  C4  UNL     1      22.669   2.551  52.207  1.00  0.00     0.071 A 
HETATM    4  N1  UNL     1      21.466   2.599  51.608  1.00  0.00    -0.259 NA
HETATM    5  C5  UNL     1      20.985   3.763  51.094  1.00  0.00     0.142 A 
HETATM    6  C6  UNL     1      21.718   4.953  51.166  1.00  0.00     0.089 A 
HETATM    7  C7  UNL     1      21.194   6.163  50.619  1.00  0.00     0.103 C 
HETATM    8  N2  UNL     1      20.753   7.134  50.171  1.00  0.00    -0.191 NA
HETATM    9  C8  UNL     1      22.936   4.837  51.790  1.00  0.00     0.067 A 
HETATM   10  C14 UNL     1      23.464   3.684  52.323  1.00  0.00     0.023 A 
HETATM   11  C15 UNL     1      24.690   3.610  52.940  1.00  0.00     0.048 A 
HETATM   12  C16 UNL     1      25.110   2.385  53.440  1.00  0.00     0.069 A 
ENDROOT
BRANCH   9  13
HETATM   13  N3  UNL     1      23.715   6.020  51.887  1.00  0.00    -0.364 N 
HETATM   14  H6  UNL     1      23.786   6.800  52.571  1.00  0.00     0.165 HD
BRANCH  13  15
HETATM   15  C9  UNL     1      24.704   6.513  50.998  1.00  0.00     0.088 C 
HETATM   16  C10 UNL     1      25.071   5.923  49.854  1.00  0.00     0.020 C 
BRANCH  16  17
HETATM   17  C11 UNL     1      26.100   6.491  48.988  1.00  0.00     0.038 C 
HETATM   18  C12 UNL     1      27.124   5.763  48.571  1.00  0.00     0.090 C 
HETATM   19  C13 UNL     1      27.227   4.342  48.993  1.00  0.00     0.082 C 
HETATM   20  F1  UNL     1      28.052   6.334  47.770  1.00  0.00    -0.211 F 
ENDBRANCH  16  17
ENDBRANCH  13  15
ENDBRANCH   9  13
BRANCH  12  21
HETATM   21  N4  UNL     1      26.398   2.311  54.088  1.00  0.00    -0.321 N 
HETATM   22  C17 UNL     1      27.478   2.156  53.175  1.00  0.00     0.246 C 
HETATM   23  O2  UNL     1      27.406   2.081  51.925  1.00  0.00    -0.268 OA
HETATM   24  H14 UNL     1      26.550   2.363  55.119  1.00  0.00     0.169 HD
BRANCH  22  25
HETATM   25  C18 UNL     1      28.821   2.070  53.728  1.00  0.00     0.086 C 
HETATM   26  C19 UNL     1      29.440   0.910  53.701  1.00  0.00     0.223 C 
HETATM   27 CL1  UNL     1      30.147  -0.675  53.605  1.00  0.00    -0.230 Cl
ENDBRANCH  22  25
ENDBRANCH  12  21
BRANCH   1  28
HETATM   28  O1  UNL     1      24.825   0.051  53.861  1.00  0.00    -0.354 OA
HETATM   29  C1  UNL     1      25.408  -0.864  52.965  1.00  0.00     0.210 C 
ENDBRANCH   1  28
TORSDOF 6
ENDMDL
