ROOT
HETATM    1  C5  UNL     1      21.661   0.005  52.976  1.00  0.00     0.039 C 
HETATM    2  C6  UNL     1      22.448  -0.819  53.628  1.00  0.00     0.032 C 
HETATM    3  C7  UNL     1      23.878  -0.615  53.946  1.00  0.00     0.031 C 
HETATM    4  C8  UNL     1      24.414   0.484  53.500  1.00  0.00     0.058 A 
HETATM    5  C9  UNL     1      23.595   1.394  52.695  1.00  0.00     0.176 A 
HETATM    6  C10 UNL     1      24.366   2.612  52.570  1.00  0.00     0.143 A 
HETATM    7  N1  UNL     1      25.527   2.453  53.135  1.00  0.00    -0.186 NA
HETATM    8  N2  UNL     1      25.640   1.174  53.707  1.00  0.00    -0.271 N 
HETATM    9  N3  UNL     1      22.208   1.339  52.750  1.00  0.00    -0.374 N 
HETATM   10  H14 UNL     1      21.628   2.198  52.633  1.00  0.00     0.160 HD
ENDROOT
BRANCH   1  11
HETATM   11  C4  UNL     1      20.265  -0.205  52.647  1.00  0.00    -0.010 A 
HETATM   12  C3  UNL     1      19.441  -0.935  53.442  1.00  0.00     0.016 A 
HETATM   13  C2  UNL     1      18.107  -1.156  53.159  1.00  0.00     0.037 A 
HETATM   14  C1  UNL     1      17.532  -0.632  52.026  1.00  0.00     0.065 A 
HETATM   15  C18 UNL     1      18.357   0.111  51.208  1.00  0.00     0.037 A 
HETATM   16  C17 UNL     1      19.685   0.310  51.523  1.00  0.00     0.016 A 
BRANCH  14  17
HETATM   17  O1  UNL     1      16.203  -0.845  51.733  1.00  0.00    -0.361 OA
HETATM   18  H1  UNL     1      15.657  -0.128  51.276  1.00  0.00     0.217 HD
ENDBRANCH  14  17
ENDBRANCH   1  11
BRANCH   8  19
HETATM   19  C11 UNL     1      26.777   0.592  54.400  1.00  0.00     0.163 C 
BRANCH  19  20
HETATM   20  C12 UNL     1      27.812   0.246  53.342  1.00  0.00     0.054 A 
HETATM   21  C13 UNL     1      27.654  -1.174  52.894  1.00  0.00    -0.013 A 
HETATM   22  C14 UNL     1      28.764  -1.842  53.171  1.00  0.00     0.038 A 
HETATM   23  C15 UNL     1      29.724  -0.929  53.814  1.00  0.00     0.113 A 
HETATM   24  F1  UNL     1      30.911  -1.487  54.152  1.00  0.00    -0.206 F 
HETATM   25  C16 UNL     1      29.181   0.272  53.914  1.00  0.00     0.025 A 
ENDBRANCH  19  20
ENDBRANCH   8  19
TORSDOF 4
ENDMDL
