ROOT
HETATM    1  C1  UNL     1      27.159  -1.833  52.723  1.00  0.00     0.020 C 
HETATM    2  C2  UNL     1      26.771  -0.521  52.260  1.00  0.00     0.052 C 
HETATM    3  C3  UNL     1      27.140   0.641  53.263  1.00  0.00    -0.024 C 
HETATM    4  C4  UNL     1      26.817  -0.004  54.455  1.00  0.00     0.011 C 
HETATM    5  C5  UNL     1      25.357  -0.542  54.066  1.00  0.00     0.011 C 
HETATM    6  C6  UNL     1      25.388  -0.024  52.828  1.00  0.00    -0.020 C 
HETATM    7  C7  UNL     1      24.552   1.001  52.214  1.00  0.00     0.079 A 
HETATM    8  N1  UNL     1      23.297   0.590  52.205  1.00  0.00    -0.241 NA
HETATM    9  C8  UNL     1      22.504   1.635  51.719  1.00  0.00     0.236 A 
HETATM   10  N2  UNL     1      23.017   2.821  51.347  1.00  0.00    -0.224 NA
HETATM   11  C9  UNL     1      24.277   3.222  51.358  1.00  0.00     0.138 A 
HETATM   12  C18 UNL     1      25.121   2.278  51.815  1.00  0.00     0.041 A 
HETATM   13  C19 UNL     1      26.593   2.663  51.988  1.00  0.00     0.047 C 
HETATM   14  C20 UNL     1      27.421   2.041  52.922  1.00  0.00     0.033 C 
ENDROOT
BRANCH  11  15
HETATM   15  N3  UNL     1      24.905   4.415  51.052  1.00  0.00    -0.366 N 
HETATM   16  H8  UNL     1      25.403   5.133  51.558  1.00  0.00     0.161 HD
BRANCH  15  17
HETATM   17  C10 UNL     1      24.798   4.665  49.635  1.00  0.00     0.112 C 
HETATM   18  C11 UNL     1      23.850   5.884  49.475  1.00  0.00     0.037 C 
BRANCH  17  19
HETATM   19  C12 UNL     1      26.132   5.134  49.102  1.00  0.00    -0.036 A 
HETATM   20  C13 UNL     1      26.229   6.499  48.776  1.00  0.00     0.012 A 
HETATM   21  C14 UNL     1      27.340   7.158  48.288  1.00  0.00     0.043 A 
HETATM   22  C15 UNL     1      28.464   6.389  48.106  1.00  0.00     0.116 A 
HETATM   23  F1  UNL     1      29.580   6.976  47.631  1.00  0.00    -0.206 F 
HETATM   24  C16 UNL     1      28.436   5.052  48.405  1.00  0.00     0.043 A 
HETATM   25  C17 UNL     1      27.311   4.464  48.881  1.00  0.00     0.012 A 
ENDBRANCH  17  19
ENDBRANCH  15  17
ENDBRANCH  11  15
BRANCH  14  26
HETATM   26  N4  UNL     1      28.445   2.503  53.691  1.00  0.00    -0.399 N 
HETATM   27  H18 UNL     1      29.437   2.249  53.634  1.00  0.00     0.156 HD
HETATM   28  H19 UNL     1      27.906   3.165  54.317  1.00  0.00     0.156 HD
ENDBRANCH  14  26
TORSDOF 4
ENDMDL
