ROOT
HETATM    1  C1  UNL     1      17.895   0.275  50.654  1.00  0.00     0.036 C 
HETATM    2  C2  UNL     1      19.360   0.296  50.685  1.00  0.00    -0.024 C 
HETATM    3  C3  UNL     1      20.332   1.163  51.065  1.00  0.00    -0.057 C 
HETATM    4  C4  UNL     1      19.843   2.426  51.587  1.00  0.00     0.024 C 
HETATM    5  C5  UNL     1      20.394   3.522  52.056  1.00  0.00     0.090 C 
HETATM    6  N1  UNL     1      21.558   4.258  52.384  1.00  0.00    -0.352 N 
HETATM    7  C6  UNL     1      22.444   5.027  51.583  1.00  0.00     0.143 C 
HETATM    8  N2  UNL     1      22.887   4.011  50.908  1.00  0.00    -0.048 NA
HETATM    9  C7  UNL     1      24.188   4.380  50.469  1.00  0.00     0.719 C 
HETATM   10  N3  UNL     1      24.414   5.574  50.907  1.00  0.00    -0.098 NA
HETATM   11  C8  UNL     1      23.114   6.271  51.114  1.00  0.00     0.248 C 
HETATM   12  N4  UNL     1      25.300   3.886  49.743  1.00  0.00    -0.222 N 
HETATM   13  C9  UNL     1      26.506   3.346  50.321  1.00  0.00     0.143 C 
HETATM   14  C10 UNL     1      26.337   2.020  51.020  1.00  0.00     0.055 C 
HETATM   15  P1  UNL     1      25.203   2.183  52.440  1.00  0.00    -0.104 P 
HETATM   16  C11 UNL     1      23.689   1.235  52.388  1.00  0.00     0.010 C 
HETATM   17  C12 UNL     1      22.534   0.632  52.116  1.00  0.00    -0.036 C 
HETATM   18  C15 UNL     1      21.710   0.718  50.890  1.00  0.00     0.075 C 
HETATM   19  H7  UNL     1      22.040   4.407  53.295  1.00  0.00     0.166 HD
HETATM   20  H10 UNL     1      25.283   3.894  48.685  1.00  0.00     0.177 HD
HETATM   21  H15 UNL     1      24.940   3.564  52.724  1.00  0.00     0.061 HD
ENDROOT
BRANCH  17  22
HETATM   22  C13 UNL     1      21.772  -0.309  53.008  1.00  0.00     0.264 C 
HETATM   23  F1  UNL     1      22.335  -1.571  53.004  1.00  0.00    -0.239 F 
BRANCH  22  24
HETATM   24  C14 UNL     1      21.694   0.138  54.431  1.00  0.00     0.391 C 
HETATM   25  F2  UNL     1      21.934  -0.913  55.317  1.00  0.00    -0.211 F 
HETATM   26  F3  UNL     1      20.417   0.591  54.759  1.00  0.00    -0.211 F 
ENDBRANCH  22  24
ENDBRANCH  17  22
TORSDOF 2
ENDMDL
