ROOT
HETATM    1  C1  UNL     1      22.289   2.006  48.992  1.00  0.00     0.155 C 
HETATM    2  N1  UNL     1      23.264   2.428  49.975  1.00  0.00    -0.361 N 
HETATM    3  C2  UNL     1      23.984   3.642  49.663  1.00  0.00     0.087 C 
HETATM    4  C3  UNL     1      25.234   3.902  50.093  1.00  0.00    -0.005 C 
HETATM    5  C4  UNL     1      26.228   3.234  50.898  1.00  0.00     0.063 C 
HETATM    6  C5  UNL     1      25.923   1.944  51.499  1.00  0.00    -0.065 C 
HETATM    7  C8  UNL     1      24.768   1.259  51.598  1.00  0.00     0.034 C 
HETATM    8  C9  UNL     1      23.428   1.604  51.118  1.00  0.00     0.050 C 
HETATM    9  C10 UNL     1      22.378   1.219  51.797  1.00  0.00     0.067 C 
HETATM   10  C11 UNL     1      20.930   1.389  51.760  1.00  0.00     0.255 C 
HETATM   11  O3  UNL     1      20.350   2.174  50.916  1.00  0.00    -0.268 OA
HETATM   12  N2  UNL     1      20.200   0.602  52.754  1.00  0.00    -0.345 N 
HETATM   13  C12 UNL     1      21.272   0.689  53.720  1.00  0.00     0.142 A 
HETATM   14  C13 UNL     1      21.243  -0.210  54.854  1.00  0.00     0.003 A 
HETATM   15  C14 UNL     1      22.271  -1.022  54.717  1.00  0.00    -0.001 A 
HETATM   16  C15 UNL     1      23.070  -0.781  53.528  1.00  0.00     0.010 A 
HETATM   17  C16 UNL     1      22.472   0.250  52.908  1.00  0.00    -0.014 A 
HETATM   18  H12 UNL     1      19.226   0.231  52.544  1.00  0.00     0.163 HD
ENDROOT
BRANCH   6  19
HETATM   19  C6  UNL     1      27.113   1.287  52.098  1.00  0.00     0.144 C 
BRANCH  19  20
HETATM   20  C7  UNL     1      27.732   2.099  53.162  1.00  0.00     0.143 C 
HETATM   21  O1  UNL     1      27.098   2.356  54.244  1.00  0.00    -0.650 OA
BRANCH  20  22
HETATM   22  O2  UNL     1      29.011   2.640  53.092  1.00  0.00    -0.776 OA
HETATM   23  H10 UNL     1      29.316   3.443  53.648  1.00  0.00     0.167 HD
ENDBRANCH  20  22
ENDBRANCH  19  20
ENDBRANCH   6  19
TORSDOF 3
ENDMDL
