ROOT
HETATM    1  C3  UNL     1      24.944   3.480  50.396  1.00  0.00     0.194 C 
HETATM    2  O2  UNL     1      24.302   3.104  49.263  1.00  0.00    -0.379 OA
HETATM    3  C4  UNL     1      23.253   3.720  48.731  1.00  0.00     0.170 C 
HETATM    4  C5  UNL     1      21.950   3.706  49.467  1.00  0.00     0.056 C 
HETATM    5  C6  UNL     1      21.813   4.336  50.772  1.00  0.00     0.275 C 
HETATM    6  N2  UNL     1      20.532   4.176  51.448  1.00  0.00     0.098 N 
HETATM    7  C7  UNL     1      19.436   3.799  50.608  1.00  0.00     0.299 C 
HETATM    8  C8  UNL     1      18.466   2.862  51.360  1.00  0.00     0.207 C 
HETATM    9  O3  UNL     1      19.143   1.709  51.849  1.00  0.00    -0.335 OA
HETATM   10  C9  UNL     1      20.535   1.880  51.983  1.00  0.00     0.171 C 
HETATM   11  N3  UNL     1      21.436   1.021  51.658  1.00  0.00    -0.209 NA
HETATM   12  C10 UNL     1      22.829   1.184  51.786  1.00  0.00     0.297 C 
HETATM   13  N4  UNL     1      23.910   1.619  51.594  1.00  0.00    -0.413 NA
HETATM   14  C11 UNL     1      25.073   2.212  51.269  1.00  0.00     0.294 C 
HETATM   15  C18 UNL     1      20.687   3.250  52.571  1.00  0.00     0.358 C 
ENDROOT
BRANCH  14  16
HETATM   16  N5  UNL     1      25.947   2.517  52.416  1.00  0.00    -0.356 N 
HETATM   17  H18 UNL     1      25.993   3.355  53.049  1.00  0.00     0.163 HD
BRANCH  16  18
HETATM   18  C12 UNL     1      26.922   1.540  52.795  1.00  0.00     0.032 A 
HETATM   19  C13 UNL     1      28.115   1.863  53.409  1.00  0.00     0.032 A 
HETATM   20  C14 UNL     1      29.073   0.942  53.776  1.00  0.00     0.046 A 
HETATM   21  C15 UNL     1      28.853  -0.397  53.528  1.00  0.00     0.138 A 
HETATM   22  F1  UNL     1      29.779  -1.316  53.881  1.00  0.00    -0.204 F 
HETATM   23  C16 UNL     1      27.682  -0.783  52.917  1.00  0.00     0.074 A 
HETATM   24 CL1  UNL     1      27.391  -2.471  52.597  1.00  0.00    -0.081 Cl
HETATM   25  C17 UNL     1      26.787   0.183  52.584  1.00  0.00     0.056 A 
ENDBRANCH  16  18
ENDBRANCH  14  16
BRANCH   1  26
HETATM   26  C2  UNL     1      26.441   3.773  50.057  1.00  0.00     0.158 C 
BRANCH  26  27
HETATM   27  N1  UNL     1      26.603   5.163  49.658  1.00  0.00    -0.366 N 
HETATM   28  H2  UNL     1      26.221   6.061  50.035  1.00  0.00     0.161 HD
BRANCH  27  29
HETATM   29  C1  UNL     1      27.457   5.329  48.523  1.00  0.00     0.348 C 
HETATM   30  O1  UNL     1      28.617   4.853  48.447  1.00  0.00    -0.284 OA
ENDBRANCH  27  29
ENDBRANCH  26  27
ENDBRANCH   1  26
TORSDOF 5
ENDMDL
