ROOT
HETATM    1  C1  UNL     1      21.216   0.299  49.832  1.00  0.00     0.068 C 
HETATM    2  C2  UNL     1      22.014   1.552  49.732  1.00  0.00     0.011 A 
HETATM    3  C3  UNL     1      22.072   2.274  48.623  1.00  0.00     0.004 A 
HETATM    4  C4  UNL     1      22.813   3.535  48.360  1.00  0.00     0.087 A 
HETATM    5  C5  UNL     1      23.532   3.901  49.606  1.00  0.00     0.029 A 
HETATM    6  C14 UNL     1      23.547   3.262  50.765  1.00  0.00     0.124 A 
HETATM    7  N2  UNL     1      22.773   2.071  50.817  1.00  0.00    -0.309 N 
ENDROOT
BRANCH   5   8
HETATM    8  N1  UNL     1      24.288   5.100  49.492  1.00  0.00    -0.361 N 
HETATM    9  H7  UNL     1      23.822   5.918  49.985  1.00  0.00     0.165 HD
BRANCH   8  10
HETATM   10  C6  UNL     1      25.511   5.565  48.907  1.00  0.00     0.012 C 
HETATM   11  C7  UNL     1      26.519   4.755  49.146  1.00  0.00     0.026 C 
HETATM   12  C8  UNL     1      27.883   4.963  48.682  1.00  0.00     0.016 C 
HETATM   13  C9  UNL     1      28.437   6.042  48.169  1.00  0.00     0.001 C 
HETATM   14  C11 UNL     1      27.850   7.351  47.912  1.00  0.00     0.011 C 
HETATM   15  C12 UNL     1      26.549   7.597  47.937  1.00  0.00    -0.020 C 
HETATM   16  C13 UNL     1      25.315   6.846  48.180  1.00  0.00     0.084 C 
BRANCH  13  17
HETATM   17  C10 UNL     1      29.844   5.931  47.797  1.00  0.00     0.269 C 
HETATM   18  O1  UNL     1      30.486   4.831  47.835  1.00  0.00    -0.301 OA
ENDBRANCH  13  17
ENDBRANCH   8  10
ENDBRANCH   5   8
BRANCH   7  19
HETATM   19  C15 UNL     1      22.761   1.353  52.043  1.00  0.00     0.146 A 
HETATM   20  N3  UNL     1      21.711   0.985  52.689  1.00  0.00    -0.241 NA
HETATM   21  C16 UNL     1      22.487   0.366  53.734  1.00  0.00     0.135 A 
HETATM   22  C17 UNL     1      23.590   0.741  53.075  1.00  0.00     0.040 A 
BRANCH  22  23
HETATM   23  C18 UNL     1      25.045   0.673  53.167  1.00  0.00    -0.003 A 
HETATM   24  C19 UNL     1      25.881  -0.323  52.719  1.00  0.00     0.015 A 
HETATM   25  C20 UNL     1      27.240  -0.226  52.890  1.00  0.00     0.020 A 
HETATM   26  C21 UNL     1      27.781   0.882  53.516  1.00  0.00     0.116 A 
HETATM   27  N4  UNL     1      26.981   1.852  53.954  1.00  0.00    -0.272 NA
HETATM   28  C22 UNL     1      25.639   1.774  53.795  1.00  0.00     0.128 A 
ENDBRANCH  22  23
ENDBRANCH   7  19
TORSDOF 5
ENDMDL
