ROOT
HETATM    1  C1  UNL     1      26.198  -0.792  53.388  1.00  0.00     0.018 C 
HETATM    2  C2  UNL     1      25.004  -0.741  53.526  1.00  0.00    -0.078 C 
HETATM    3  C3  UNL     1      23.563  -0.660  53.708  1.00  0.00     0.019 A 
HETATM    4  C4  UNL     1      22.915  -0.931  54.892  1.00  0.00     0.021 A 
HETATM    5  C5  UNL     1      21.525  -0.828  54.958  1.00  0.00     0.004 A 
HETATM    6  C6  UNL     1      20.778  -0.459  53.861  1.00  0.00     0.029 A 
HETATM    7  C7  UNL     1      21.428  -0.190  52.685  1.00  0.00     0.035 A 
HETATM    8  C22 UNL     1      22.821  -0.283  52.584  1.00  0.00     0.050 A 
ENDROOT
BRANCH   7   9
HETATM    9  N1  UNL     1      20.784   0.217  51.449  1.00  0.00    -0.340 N 
HETATM   10  H5  UNL     1      20.219  -0.233  50.705  1.00  0.00     0.167 HD
BRANCH   9  11
HETATM   11  C8  UNL     1      21.145   1.574  51.526  1.00  0.00     0.140 C 
HETATM   12  N2  UNL     1      21.158   2.820  52.096  1.00  0.00    -0.215 NA
HETATM   13  C9  UNL     1      22.494   3.378  52.013  1.00  0.00     0.130 C 
HETATM   14  N3  UNL     1      23.676   2.939  51.545  1.00  0.00    -0.260 NA
HETATM   15  C21 UNL     1      22.894   4.788  51.982  1.00  0.00     0.145 C 
HETATM   16  C10 UNL     1      23.348   2.634  50.123  1.00  0.00     0.182 C 
HETATM   17  C11 UNL     1      21.958   1.945  50.252  1.00  0.00     0.039 C 
HETATM   18  C14 UNL     1      22.999   3.961  49.561  1.00  0.00     0.003 C 
HETATM   19  C12 UNL     1      21.563   1.643  48.978  1.00  0.00     0.148 C 
HETATM   20  O1  UNL     1      22.516   2.137  48.005  1.00  0.00    -0.358 OA
HETATM   21  C13 UNL     1      22.763   3.577  48.148  1.00  0.00     0.214 C 
HETATM   22  C15 UNL     1      22.994   5.037  50.426  1.00  0.00     0.060 C 
BRANCH  22  23
HETATM   23  O2  UNL     1      23.090   6.088  49.484  1.00  0.00    -0.352 OA
BRANCH  23  24
HETATM   24  C16 UNL     1      23.910   7.165  49.887  1.00  0.00     0.207 C 
BRANCH  24  25
HETATM   25  C17 UNL     1      25.346   6.735  50.084  1.00  0.00     0.145 C 
HETATM   26  C18 UNL     1      25.920   6.153  48.812  1.00  0.00     0.036 C 
HETATM   27  C19 UNL     1      26.980   7.124  48.354  1.00  0.00     0.029 C 
HETATM   28  C20 UNL     1      26.843   8.249  49.352  1.00  0.00     0.168 C 
HETATM   29  O3  UNL     1      26.200   7.741  50.453  1.00  0.00    -0.384 OA
ENDBRANCH  24  25
ENDBRANCH  23  24
ENDBRANCH  22  23
ENDBRANCH   9  11
ENDBRANCH   7   9
TORSDOF 5
ENDMDL
