ROOT
HETATM    1  C1  UNL     1      23.156  -0.999  54.396  1.00  0.00     0.073 C 
HETATM    2  C2  UNL     1      24.345  -0.510  54.133  1.00  0.00     0.068 A 
HETATM    3  O1  UNL     1      25.462  -1.006  54.534  1.00  0.00    -0.295 OA
HETATM    4  C3  UNL     1      26.486  -0.321  54.131  1.00  0.00     0.182 A 
HETATM    5  N1  UNL     1      27.794  -0.539  54.354  1.00  0.00    -0.236 NA
HETATM    6  C4  UNL     1      28.708   0.308  53.835  1.00  0.00     0.122 A 
HETATM    7  C5  UNL     1      28.228   1.351  53.103  1.00  0.00     0.049 A 
HETATM    8  C6  UNL     1      26.872   1.595  52.859  1.00  0.00     0.045 A 
HETATM    9  C14 UNL     1      25.958   0.720  53.397  1.00  0.00     0.057 A 
HETATM   10  C15 UNL     1      24.583   0.645  53.368  1.00  0.00     0.021 A 
ENDROOT
BRANCH   8  11
HETATM   11  N2  UNL     1      26.543   2.729  52.077  1.00  0.00    -0.385 N 
HETATM   12  H5  UNL     1      26.316   3.681  52.324  1.00  0.00     0.160 HD
BRANCH  11  13
HETATM   13  C7  UNL     1      26.488   2.630  50.659  1.00  0.00     0.158 C 
BRANCH  13  14
HETATM   14  C8  UNL     1      26.284   3.860  49.906  1.00  0.00    -0.041 A 
HETATM   15  C9  UNL     1      25.029   4.477  49.874  1.00  0.00     0.009 A 
HETATM   16  C10 UNL     1      24.791   5.645  49.170  1.00  0.00     0.001 A 
HETATM   17  C11 UNL     1      25.861   6.207  48.478  1.00  0.00     0.000 A 
HETATM   18  C12 UNL     1      27.089   5.590  48.519  1.00  0.00     0.001 A 
HETATM   19  C13 UNL     1      27.331   4.444  49.205  1.00  0.00     0.009 A 
ENDBRANCH  13  14
ENDBRANCH  11  13
ENDBRANCH   8  11
BRANCH  10  20
HETATM   20  C16 UNL     1      23.757   1.503  52.739  1.00  0.00    -0.022 A 
HETATM   21  C17 UNL     1      22.873   2.554  52.179  1.00  0.00     0.013 A 
HETATM   22  C18 UNL     1      22.995   1.454  51.465  1.00  0.00     0.013 A 
ENDBRANCH  10  20
TORSDOF 4
ENDMDL
