ROOT
HETATM    1  N1  UNL     1      24.263   4.354  50.492  1.00  0.00    -0.360 N 
HETATM    2  C3  UNL     1      25.106   3.742  49.447  1.00  0.00     0.126 C 
HETATM    3  C4  UNL     1      26.474   4.425  49.585  1.00  0.00     0.040 C 
HETATM    4  C5  UNL     1      26.600   5.676  48.792  1.00  0.00     0.124 C 
HETATM    5  N2  UNL     1      26.006   6.828  49.469  1.00  0.00    -0.378 N 
HETATM    6  C6  UNL     1      26.868   8.012  49.610  1.00  0.00     0.149 C 
HETATM    7  C7  UNL     1      25.990   9.145  50.066  1.00  0.00     0.187 C 
HETATM    8  O1  UNL     1      24.804   9.083  49.341  1.00  0.00    -0.384 OA
HETATM    9  C8  UNL     1      23.973   8.173  50.036  1.00  0.00     0.226 C 
HETATM   10  C9  UNL     1      24.675   6.838  49.971  1.00  0.00     0.060 C 
HETATM   11  C10 UNL     1      23.997   5.774  50.380  1.00  0.00     0.080 C 
HETATM   12  C11 UNL     1      22.649   6.242  50.785  1.00  0.00     0.410 C 
HETATM   13  O2  UNL     1      21.585   6.831  51.069  1.00  0.00    -0.404 OA
ENDROOT
BRANCH   1  14
HETATM   14  C2  UNL     1      23.610   3.794  51.612  1.00  0.00     0.099 C 
HETATM   15  C1  UNL     1      23.389   4.671  52.800  1.00  0.00     0.048 C 
HETATM   16  C12 UNL     1      24.450   2.631  52.118  1.00  0.00     0.011 C 
HETATM   17  C13 UNL     1      24.113   1.511  51.414  1.00  0.00     0.030 C 
HETATM   18  C14 UNL     1      23.061   1.923  50.444  1.00  0.00     0.089 A 
HETATM   19  N3  UNL     1      22.421   1.887  49.337  1.00  0.00    -0.242 NA
HETATM   20  C16 UNL     1      22.376   2.985  51.291  1.00  0.00     0.201 A 
HETATM   21  C15 UNL     1      21.368   2.862  49.359  1.00  0.00     0.230 A 
HETATM   22  N4  UNL     1      21.367   3.487  50.497  1.00  0.00    -0.241 NA
BRANCH  20  23
HETATM   23  N5  UNL     1      21.958   2.337  52.518  1.00  0.00    -0.355 N 
HETATM   24  H20 UNL     1      22.281   2.830  53.402  1.00  0.00     0.162 HD
BRANCH  23  25
HETATM   25  C17 UNL     1      21.223   1.189  52.899  1.00  0.00     0.030 A 
HETATM   26  C18 UNL     1      19.968   0.851  52.376  1.00  0.00     0.032 A 
HETATM   27  C19 UNL     1      19.285  -0.268  52.769  1.00  0.00     0.044 A 
HETATM   28  C20 UNL     1      19.811  -1.114  53.706  1.00  0.00     0.116 A 
HETATM   29  F1  UNL     1      19.046  -2.179  54.009  1.00  0.00    -0.206 F 
HETATM   30  C21 UNL     1      21.039  -0.848  54.264  1.00  0.00     0.044 A 
HETATM   31  C22 UNL     1      21.685   0.291  53.835  1.00  0.00     0.032 A 
ENDBRANCH  23  25
ENDBRANCH  20  23
ENDBRANCH   1  14
TORSDOF 3
ENDMDL
