ROOT
HETATM    1  C6  UNL     1      23.089   0.892  52.212  1.00  0.00     0.096 C 
HETATM    2  C7  UNL     1      22.085   1.976  52.610  1.00  0.00    -0.048 C 
HETATM    3  C8  UNL     1      20.887   1.501  52.912  1.00  0.00     0.015 C 
HETATM    4  C9  UNL     1      20.457   0.680  51.690  1.00  0.00    -0.028 C 
HETATM    5  C11 UNL     1      21.248   0.546  50.559  1.00  0.00     0.037 C 
HETATM    6  C12 UNL     1      22.472   1.325  50.840  1.00  0.00     0.039 C 
HETATM    7  N3  UNL     1      23.505   2.108  50.930  1.00  0.00    -0.289 NA
HETATM    8  C13 UNL     1      23.230   2.861  52.301  1.00  0.00     0.184 C 
ENDROOT
BRANCH   1   9
HETATM    9  C5  UNL     1      24.487   0.974  52.353  1.00  0.00     0.287 C 
BRANCH   9  10
HETATM   10  N2  UNL     1      25.041  -0.353  52.780  1.00  0.00     0.092 N 
HETATM   11  C4  UNL     1      26.371  -0.491  52.193  1.00  0.00     0.292 C 
HETATM   12  C3  UNL     1      27.340  -1.079  53.190  1.00  0.00     0.156 C 
HETATM   13  N1  UNL     1      27.640  -0.037  54.123  1.00  0.00    -0.349 N 
HETATM   14  C2  UNL     1      28.936   0.434  54.327  1.00  0.00     0.215 C 
HETATM   15  C15 UNL     1      26.417   0.363  54.719  1.00  0.00     0.156 C 
HETATM   16  C1  UNL     1      30.068  -0.134  53.553  1.00  0.00     0.117 C 
HETATM   17  O1  UNL     1      29.107   1.359  55.189  1.00  0.00    -0.274 OA
HETATM   18  C14 UNL     1      25.177  -0.346  54.240  1.00  0.00     0.292 C 
ENDBRANCH   9  10
ENDBRANCH   1   9
BRANCH   4  19
HETATM   19  C10 UNL     1      19.132   0.013  51.696  1.00  0.00     0.261 C 
HETATM   20  F1  UNL     1      19.113  -0.819  52.797  1.00  0.00    -0.251 F 
ENDBRANCH   4  19
TORSDOF 3
ENDMDL
