ROOT
HETATM    1  C2  UNL     1      21.982   0.800  51.931  1.00  0.00     0.079 A 
HETATM    2  C3  UNL     1      22.264   1.683  50.914  1.00  0.00     0.069 A 
HETATM    3  C4  UNL     1      23.355   2.493  51.029  1.00  0.00     0.060 A 
HETATM    4  C12 UNL     1      24.144   2.414  52.143  1.00  0.00     0.062 A 
HETATM    5  C13 UNL     1      23.787   1.480  53.152  1.00  0.00     0.044 A 
HETATM    6  C14 UNL     1      22.700   0.636  53.094  1.00  0.00     0.002 A 
HETATM    7  C15 UNL     1      22.429  -0.313  54.175  1.00  0.00     0.139 C 
HETATM    8  C16 UNL     1      21.524  -1.454  53.712  1.00  0.00     0.039 C 
HETATM    9  N3  UNL     1      23.599  -0.793  54.808  1.00  0.00    -0.290 NA
HETATM   10  C17 UNL     1      24.803  -0.900  54.529  1.00  0.00     0.142 C 
HETATM   11  C18 UNL     1      26.078  -0.845  53.828  1.00  0.00     0.075 A 
HETATM   12  C19 UNL     1      26.377  -1.914  53.021  1.00  0.00     0.034 A 
HETATM   13  C20 UNL     1      27.595  -1.677  52.419  1.00  0.00     0.022 A 
HETATM   14  C21 UNL     1      27.915  -0.446  52.944  1.00  0.00     0.119 A 
HETATM   15  N4  UNL     1      27.034   0.102  53.802  1.00  0.00    -0.243 N 
HETATM   16  N5  UNL     1      27.112   1.305  54.501  1.00  0.00    -0.165 NA
HETATM   17  C22 UNL     1      27.819   2.234  54.001  1.00  0.00     0.113 C 
HETATM   18  C23 UNL     1      27.915   2.324  52.679  1.00  0.00     0.110 C 
HETATM   19  C24 UNL     1      26.500   2.154  52.350  1.00  0.00     0.248 C 
HETATM   20  O2  UNL     1      25.562   1.485  51.875  1.00  0.00    -0.268 OA
HETATM   21  N6  UNL     1      25.376   3.059  52.572  1.00  0.00    -0.322 N 
HETATM   22  H30 UNL     1      24.793   3.877  52.825  1.00  0.00     0.169 HD
ENDROOT
BRANCH   3  23
HETATM   23  N1  UNL     1      23.992   3.519  50.287  1.00  0.00    -0.379 N 
HETATM   24  C5  UNL     1      24.959   3.478  49.216  1.00  0.00     0.125 C 
HETATM   25  C6  UNL     1      26.029   4.546  49.499  1.00  0.00     0.055 C 
HETATM   26  C7  UNL     1      25.369   5.876  49.204  1.00  0.00     0.225 C 
HETATM   27  C10 UNL     1      23.953   5.922  49.702  1.00  0.00     0.055 C 
HETATM   28  C11 UNL     1      23.602   4.839  50.673  1.00  0.00     0.125 C 
BRANCH  26  29
HETATM   29  N2  UNL     1      26.085   7.003  49.706  1.00  0.00     0.084 N 
HETATM   30  C8  UNL     1      27.182   7.404  48.866  1.00  0.00     0.309 C 
HETATM   31  C9  UNL     1      25.299   8.135  50.074  1.00  0.00     0.309 C 
ENDBRANCH  26  29
ENDBRANCH   3  23
BRANCH   1  32
HETATM   32  O1  UNL     1      20.854   0.026  51.714  1.00  0.00    -0.355 OA
HETATM   33  C1  UNL     1      19.617   0.472  51.258  1.00  0.00     0.210 C 
ENDBRANCH   1  32
TORSDOF 3
ENDMDL
