ROOT
HETATM    1  C10 UNL     1      23.989   0.272  53.437  1.00  0.00     0.035 A 
HETATM    2  C11 UNL     1      24.561  -0.574  54.356  1.00  0.00     0.032 A 
HETATM    3  C12 UNL     1      25.883  -0.580  54.717  1.00  0.00     0.035 A 
HETATM    4  C13 UNL     1      26.756   0.315  54.142  1.00  0.00     0.072 A 
HETATM    5  N3  UNL     1      28.060   0.385  54.430  1.00  0.00    -0.241 NA
HETATM    6  C14 UNL     1      28.847   1.302  53.813  1.00  0.00     0.236 A 
HETATM    7  N4  UNL     1      28.365   2.164  52.902  1.00  0.00    -0.224 NA
HETATM    8  C15 UNL     1      27.057   2.104  52.605  1.00  0.00     0.141 A 
HETATM    9  C20 UNL     1      26.215   1.188  53.206  1.00  0.00     0.041 A 
HETATM   10  C21 UNL     1      24.882   1.159  52.875  1.00  0.00     0.047 A 
ENDROOT
BRANCH   1  11
HETATM   11  N2  UNL     1      22.633   0.312  53.045  1.00  0.00    -0.327 N 
HETATM   12  C9  UNL     1      21.464  -0.006  53.782  1.00  0.00     0.222 C 
HETATM   13  O1  UNL     1      21.641  -0.382  54.963  1.00  0.00    -0.273 OA
HETATM   14  H19 UNL     1      22.445   0.624  52.051  1.00  0.00     0.169 HD
BRANCH  12  15
HETATM   15  C8  UNL     1      20.156   0.118  53.141  1.00  0.00     0.105 C 
BRANCH  15  16
HETATM   16  C7  UNL     1      20.250   0.244  51.649  1.00  0.00     0.039 C 
BRANCH  16  17
HETATM   17  C6  UNL     1      19.759   1.594  51.215  1.00  0.00     0.273 C 
BRANCH  17  18
HETATM   18  N1  UNL     1      20.834   2.348  50.619  1.00  0.00     0.088 N 
BRANCH  18  19
HETATM   19  C3  UNL     1      21.779   1.552  49.940  1.00  0.00     0.272 C 
BRANCH  19  20
HETATM   20  C2  UNL     1      21.529   1.394  48.460  1.00  0.00     0.026 C 
HETATM   21  C1  UNL     1      22.486   2.190  47.619  1.00  0.00     0.007 C 
ENDBRANCH  19  20
ENDBRANCH  18  19
BRANCH  18  22
HETATM   22  C4  UNL     1      21.399   3.303  51.542  1.00  0.00     0.268 C 
HETATM   23  C5  UNL     1      22.771   3.710  51.059  1.00  0.00     0.037 C 
ENDBRANCH  18  22
ENDBRANCH  17  18
ENDBRANCH  16  17
ENDBRANCH  15  16
ENDBRANCH  12  15
ENDBRANCH   1  11
BRANCH   8  24
HETATM   24  N5  UNL     1      26.585   3.044  51.631  1.00  0.00    -0.350 N 
HETATM   25  H23 UNL     1      26.252   3.822  52.232  1.00  0.00     0.166 HD
BRANCH  24  26
HETATM   26  C16 UNL     1      26.547   3.001  50.212  1.00  0.00     0.085 C 
HETATM   27  C17 UNL     1      26.357   3.926  49.305  1.00  0.00    -0.009 C 
BRANCH  27  28
HETATM   28  C18 UNL     1      26.109   5.377  49.408  1.00  0.00     0.043 C 
BRANCH  28  29
HETATM   29  C19 UNL     1      27.058   6.165  48.523  1.00  0.00     0.118 C 
HETATM   30 CL1  UNL     1      28.612   5.358  48.303  1.00  0.00    -0.130 Cl
ENDBRANCH  28  29
ENDBRANCH  27  28
ENDBRANCH  24  26
ENDBRANCH   8  24
TORSDOF 12
ENDMDL
