ROOT
HETATM    1  C2  UNL     1      21.157   1.655  50.853  1.00  0.00     0.043 A 
HETATM    2  C3  UNL     1      22.092   2.439  50.339  1.00  0.00     0.044 A 
HETATM    3  C4  UNL     1      23.323   2.049  51.035  1.00  0.00    -0.005 A 
HETATM    4  C5  UNL     1      24.548   2.548  50.889  1.00  0.00     0.147 C 
HETATM    5  O3  UNL     1      25.678   2.097  51.614  1.00  0.00    -0.358 OA
HETATM    6  C6  UNL     1      25.946   0.723  51.782  1.00  0.00     0.211 C 
HETATM    7  C7  UNL     1      25.146   0.166  52.940  1.00  0.00    -0.023 C 
HETATM    8  C8  UNL     1      25.296  -0.402  54.123  1.00  0.00     0.057 C 
HETATM    9  C15 UNL     1      23.679   0.126  52.988  1.00  0.00     0.078 C 
HETATM   10  C16 UNL     1      22.982   0.971  51.986  1.00  0.00    -0.040 A 
HETATM   11  C17 UNL     1      21.671   0.747  51.862  1.00  0.00     0.038 A 
ENDROOT
BRANCH   8  12
HETATM   12  N2  UNL     1      25.544  -1.021  55.414  1.00  0.00    -0.323 N 
HETATM   13  H9  UNL     1      26.561  -1.009  55.731  1.00  0.00     0.180 HD
BRANCH  12  14
HETATM   14  N3  UNL     1      24.493  -1.588  56.141  1.00  0.00    -0.249 NA
HETATM   15  H10 UNL     1      24.404  -2.587  55.806  1.00  0.00     0.143 HD
HETATM   16  H11 UNL     1      23.600  -1.127  55.809  1.00  0.00     0.143 HD
ENDBRANCH  12  14
ENDBRANCH   8  12
BRANCH   8  17
HETATM   17  C9  UNL     1      26.779  -0.353  53.945  1.00  0.00    -0.006 A 
HETATM   18  C10 UNL     1      27.547  -1.360  53.349  1.00  0.00     0.017 A 
HETATM   19  C11 UNL     1      28.923  -1.355  53.163  1.00  0.00     0.045 A 
HETATM   20  C12 UNL     1      29.569  -0.228  53.622  1.00  0.00     0.138 A 
HETATM   21  F1  UNL     1      30.911  -0.164  53.466  1.00  0.00    -0.204 F 
HETATM   22  C13 UNL     1      28.948   0.841  54.227  1.00  0.00     0.073 A 
HETATM   23 CL1  UNL     1      29.772   2.266  54.812  1.00  0.00    -0.081 Cl
HETATM   24  C14 UNL     1      27.558   0.737  54.368  1.00  0.00     0.040 A 
ENDBRANCH   8  17
BRANCH   1  25
HETATM   25  N1  UNL     1      19.809   1.751  50.409  1.00  0.00    -0.285 N 
HETATM   26  H4  UNL     1      19.520   1.132  49.608  1.00  0.00     0.178 HD
BRANCH  25  27
HETATM   27  S1  UNL     1      18.656   2.819  51.118  1.00  0.00     0.227 S 
HETATM   28  C1  UNL     1      18.152   4.118  50.034  1.00  0.00     0.186 C 
HETATM   29  O1  UNL     1      17.426   2.087  51.563  1.00  0.00    -0.206 OA
HETATM   30  O2  UNL     1      19.257   3.452  52.340  1.00  0.00    -0.206 OA
ENDBRANCH  25  27
ENDBRANCH   1  25
TORSDOF 5
ENDMDL
