ROOT
HETATM    1  C5  UNL     1      28.262   7.225  47.783  1.00  0.00     0.270 A 
HETATM    2  C6  UNL     1      28.946   5.945  48.054  1.00  0.00     0.126 A 
HETATM    3  N2  UNL     1      28.575   4.782  48.544  1.00  0.00    -0.263 NA
HETATM    4  C7  UNL     1      27.194   4.626  48.940  1.00  0.00     0.053 A 
HETATM    5  C18 UNL     1      26.569   5.763  48.703  1.00  0.00     0.007 A 
HETATM    6  C19 UNL     1      26.827   7.114  48.174  1.00  0.00     0.071 A 
ENDROOT
BRANCH   4   7
HETATM    7  C8  UNL     1      26.580   3.442  49.501  1.00  0.00     0.048 C 
HETATM    8  C9  UNL     1      25.696   3.482  50.469  1.00  0.00     0.093 C 
BRANCH   8   9
HETATM    9  N3  UNL     1      25.144   2.264  50.958  1.00  0.00    -0.335 N 
HETATM   10  C10 UNL     1      24.489   2.350  52.232  1.00  0.00     0.245 C 
HETATM   11  O1  UNL     1      24.476   3.512  52.770  1.00  0.00    -0.271 OA
HETATM   12  H11 UNL     1      25.076   1.279  50.625  1.00  0.00     0.168 HD
BRANCH  10  13
HETATM   13  C11 UNL     1      23.786   1.420  53.140  1.00  0.00     0.278 C 
BRANCH  13  14
HETATM   14  O2  UNL     1      24.426   0.196  53.280  1.00  0.00    -0.342 OA
BRANCH  14  15
HETATM   15  C12 UNL     1      25.749   0.068  53.616  1.00  0.00     0.069 A 
HETATM   16  C13 UNL     1      26.405  -0.712  52.656  1.00  0.00     0.040 A 
HETATM   17  C14 UNL     1      27.764  -1.005  52.749  1.00  0.00     0.045 A 
HETATM   18  C15 UNL     1      28.487  -0.517  53.816  1.00  0.00     0.116 A 
HETATM   19  F1  UNL     1      29.818  -0.754  53.987  1.00  0.00    -0.206 F 
HETATM   20  C16 UNL     1      27.864   0.254  54.776  1.00  0.00     0.045 A 
HETATM   21  C17 UNL     1      26.522   0.544  54.682  1.00  0.00     0.040 A 
ENDBRANCH  14  15
ENDBRANCH  13  14
ENDBRANCH  10  13
ENDBRANCH   8   9
ENDBRANCH   4   7
BRANCH   1  22
HETATM   22  N1  UNL     1      28.925   8.381  48.320  1.00  0.00     0.135 N 
HETATM   23  C4  UNL     1      29.721   8.986  47.286  1.00  0.00     0.304 C 
HETATM   24  C3  UNL     1      30.537  10.072  47.953  1.00  0.00     0.006 C 
HETATM   25  C2  UNL     1      29.873  11.021  48.604  1.00  0.00    -0.082 C 
HETATM   26  C1  UNL     1      30.557  12.130  49.292  1.00  0.00     0.043 C 
HETATM   27  C21 UNL     1      28.413  10.736  48.494  1.00  0.00     0.101 C 
HETATM   28  C20 UNL     1      28.064   9.343  48.903  1.00  0.00     0.456 C 
BRANCH  28  29
HETATM   29  N4  UNL     1      28.110   9.336  50.373  1.00  0.00     0.112 N 
HETATM   30  H22 UNL     1      28.284   8.397  50.756  1.00  0.00     0.315 HD
HETATM   31  H23 UNL     1      28.852   9.983  50.703  1.00  0.00     0.315 HD
ENDBRANCH  28  29
ENDBRANCH   1  22
TORSDOF 7
ENDMDL
