ROOT
HETATM    1  C3  UNL     1      23.433   2.220  50.538  1.00  0.00     0.129 A 
HETATM    2  N2  UNL     1      23.106   2.571  49.369  1.00  0.00    -0.269 NA
HETATM    3  C4  UNL     1      22.022   2.125  48.565  1.00  0.00     0.178 A 
HETATM    4  C5  UNL     1      21.152   1.109  49.164  1.00  0.00    -0.004 A 
HETATM    5  C6  UNL     1      21.456   0.718  50.373  1.00  0.00     0.013 A 
HETATM    6  C7  UNL     1      22.573   1.197  51.173  1.00  0.00     0.010 A 
HETATM    7  C8  UNL     1      22.864   0.802  52.395  1.00  0.00     0.028 C 
ENDROOT
BRANCH   1   8
HETATM    8  N1  UNL     1      24.578   2.791  51.195  1.00  0.00    -0.366 N 
HETATM    9  H5  UNL     1      24.330   3.483  51.937  1.00  0.00     0.161 HD
BRANCH   8  10
HETATM   10  C2  UNL     1      25.892   2.359  50.775  1.00  0.00     0.112 C 
HETATM   11  C1  UNL     1      26.661   3.487  50.138  1.00  0.00     0.037 C 
BRANCH  10  12
HETATM   12  C13 UNL     1      26.642   1.662  51.812  1.00  0.00    -0.036 A 
HETATM   13  C14 UNL     1      26.504   0.293  51.998  1.00  0.00     0.012 A 
HETATM   14  C15 UNL     1      27.178  -0.434  52.953  1.00  0.00     0.043 A 
HETATM   15  C16 UNL     1      28.052   0.231  53.789  1.00  0.00     0.116 A 
HETATM   16  F1  UNL     1      28.773  -0.377  54.769  1.00  0.00    -0.206 F 
HETATM   17  C17 UNL     1      28.248   1.598  53.670  1.00  0.00     0.043 A 
HETATM   18  C18 UNL     1      27.544   2.261  52.695  1.00  0.00     0.012 A 
ENDBRANCH  10  12
ENDBRANCH   8  10
ENDBRANCH   1   8
BRANCH   7  19
HETATM   19  C9  UNL     1      22.313  -0.141  53.357  1.00  0.00    -0.018 A 
HETATM   20  C10 UNL     1      21.226  -0.728  53.815  1.00  0.00     0.021 A 
HETATM   21 BR1  UNL     1      19.419  -0.519  53.234  1.00  0.00    -0.050 Br
HETATM   22  C11 UNL     1      21.989  -1.473  54.807  1.00  0.00     0.021 A 
HETATM   23  C12 UNL     1      23.073  -0.888  54.351  1.00  0.00     0.014 A 
ENDBRANCH   7  19
TORSDOF 4
ENDMDL
