ROOT
HETATM    1  C9  UNL     1      22.517  -0.794  53.671  1.00  0.00     0.043 C 
HETATM    2  C10 UNL     1      23.257  -1.113  54.746  1.00  0.00     0.006 C 
HETATM    3  C11 UNL     1      24.708  -0.898  54.986  1.00  0.00     0.041 C 
HETATM    4  C12 UNL     1      25.362  -0.044  53.922  1.00  0.00    -0.002 C 
HETATM    5  C13 UNL     1      24.363   0.789  53.174  1.00  0.00     0.018 C 
HETATM    6  C14 UNL     1      23.309  -0.135  52.601  1.00  0.00     0.065 C 
HETATM    7  C15 UNL     1      26.034  -0.967  52.927  1.00  0.00     0.042 C 
HETATM    8  C16 UNL     1      27.509  -0.825  53.084  1.00  0.00     0.274 C 
HETATM    9  N1  UNL     1      27.708  -0.027  54.242  1.00  0.00     0.098 N 
HETATM   10  C17 UNL     1      28.919   0.721  54.275  1.00  0.00     0.299 C 
HETATM   11  C18 UNL     1      28.829   2.066  53.605  1.00  0.00     0.198 C 
HETATM   12  O3  UNL     1      27.575   2.230  52.971  1.00  0.00    -0.387 OA
HETATM   13  C19 UNL     1      26.643   2.138  54.022  1.00  0.00     0.204 C 
HETATM   14  C20 UNL     1      26.513   0.733  54.485  1.00  0.00     0.255 C 
ENDROOT
BRANCH   1  15
HETATM   15  O2  UNL     1      21.181  -1.120  53.734  1.00  0.00    -0.351 OA
BRANCH  15  16
HETATM   16  C8  UNL     1      20.138  -0.207  53.859  1.00  0.00     0.216 C 
BRANCH  16  17
HETATM   17  C7  UNL     1      19.235  -0.143  52.675  1.00  0.00    -0.001 A 
HETATM   18  C2  UNL     1      17.992  -0.699  52.528  1.00  0.00     0.076 A 
HETATM   19  C3  UNL     1      17.277  -0.552  51.368  1.00  0.00     0.037 A 
HETATM   20  C4  UNL     1      17.746   0.154  50.283  1.00  0.00     0.003 A 
HETATM   21  C5  UNL     1      19.004   0.728  50.406  1.00  0.00     0.001 A 
HETATM   22  C6  UNL     1      19.718   0.576  51.576  1.00  0.00     0.012 A 
BRANCH  18  23
HETATM   23  O1  UNL     1      17.535  -1.412  53.642  1.00  0.00    -0.355 OA
HETATM   24  C1  UNL     1      17.616  -2.831  53.541  1.00  0.00     0.210 C 
ENDBRANCH  18  23
ENDBRANCH  16  17
ENDBRANCH  15  16
ENDBRANCH   1  15
TORSDOF 4
ENDMDL
