ROOT
HETATM    1  C3  UNL     1      32.996   4.471  46.744  1.00  0.00     0.068 C 
HETATM    2  C4  UNL     1      32.386   5.757  47.209  1.00  0.00     0.040 C 
HETATM    3  N1  UNL     1      32.211   6.555  48.202  1.00  0.00    -0.253 N 
HETATM    4  C5  UNL     1      32.658   6.436  49.513  1.00  0.00     0.227 A 
HETATM    5  N2  UNL     1      31.993   7.449  49.158  1.00  0.00    -0.269 N 
HETATM    6  C6  UNL     1      31.582   8.585  49.911  1.00  0.00     0.229 C 
HETATM    7  S1  UNL     1      31.080   9.858  48.713  1.00  0.00    -0.110 SA
HETATM    8  C7  UNL     1      29.635   9.353  47.799  1.00  0.00     0.011 C 
HETATM    9  C8  UNL     1      29.777   8.610  46.701  1.00  0.00    -0.005 C 
HETATM   10  C9  UNL     1      28.462   8.261  46.036  1.00  0.00     0.067 C 
HETATM   11  C10 UNL     1      27.501   7.710  47.103  1.00  0.00     0.131 C 
HETATM   12  N3  UNL     1      27.380   8.707  48.150  1.00  0.00    -0.344 N 
HETATM   13  C11 UNL     1      26.349   8.688  49.096  1.00  0.00     0.243 C 
HETATM   14  O1  UNL     1      26.159   9.502  50.043  1.00  0.00    -0.268 OA
HETATM   15  C16 UNL     1      28.304   9.789  48.297  1.00  0.00     0.172 C 
HETATM   16  S2  UNL     1      31.394   8.115  46.124  1.00  0.00    -0.117 SA
HETATM   17  C17 UNL     1      31.690   6.380  46.033  1.00  0.00     0.134 C 
HETATM   18  C18 UNL     1      32.647   5.986  44.955  1.00  0.00    -0.031 A 
HETATM   19  C19 UNL     1      32.868   6.531  43.696  1.00  0.00     0.009 A 
HETATM   20  C20 UNL     1      33.829   6.003  42.831  1.00  0.00     0.001 A 
HETATM   21  C21 UNL     1      34.570   4.915  43.253  1.00  0.00     0.001 A 
HETATM   22  C22 UNL     1      34.348   4.380  44.501  1.00  0.00     0.008 A 
HETATM   23  C23 UNL     1      33.398   4.901  45.355  1.00  0.00    -0.041 A 
ENDROOT
BRANCH  13  24
HETATM   24  C12 UNL     1      25.231   7.774  49.278  1.00  0.00     0.072 C 
HETATM   25  C13 UNL     1      25.222   7.182  50.459  1.00  0.00     0.008 C 
BRANCH  25  26
HETATM   26  C14 UNL     1      24.206   6.208  50.912  1.00  0.00     0.296 C 
BRANCH  26  27
HETATM   27  N4  UNL     1      24.117   6.066  52.337  1.00  0.00     0.082 N 
HETATM   28  C15 UNL     1      23.396   4.860  52.692  1.00  0.00     0.307 C 
HETATM   29  H18 UNL     1      23.623   6.869  52.776  1.00  0.00     0.315 HD
ENDBRANCH  26  27
ENDBRANCH  25  26
ENDBRANCH  13  24
BRANCH   1  30
HETATM   30  C2  UNL     1      31.957   3.358  46.647  1.00  0.00     0.011 C 
HETATM   31  C1  UNL     1      32.620   2.006  46.939  1.00  0.00     0.006 C 
ENDBRANCH   1  30
TORSDOF 4
ENDMDL
