ROOT
HETATM    1  C8  UNL     1      26.621   4.760  49.151  1.00  0.00     0.190 A 
HETATM    2  N2  UNL     1      27.934   4.594  48.823  1.00  0.00    -0.205 NA
HETATM    3  C9  UNL     1      28.373   5.739  48.236  1.00  0.00     0.180 A 
HETATM    4  N3  UNL     1      27.318   6.561  48.227  1.00  0.00    -0.109 NA
HETATM    5  O2  UNL     1      26.302   5.955  48.773  1.00  0.00    -0.194 OA
ENDROOT
BRANCH   1   6
HETATM    6  C7  UNL     1      25.804   3.692  49.822  1.00  0.00     0.208 C 
BRANCH   6   7
HETATM    7  N1  UNL     1      26.354   3.454  51.126  1.00  0.00    -0.386 N 
HETATM    8  H7  UNL     1      26.904   4.179  51.622  1.00  0.00     0.159 HD
BRANCH   7   9
HETATM    9  C2  UNL     1      26.182   2.239  51.800  1.00  0.00     0.001 C 
HETATM   10  C1  UNL     1      25.132   2.166  52.855  1.00  0.00     0.068 C 
HETATM   11  C3  UNL     1      26.864   1.125  51.600  1.00  0.00     0.024 C 
BRANCH  11  12
HETATM   12  C4  UNL     1      26.582  -0.069  52.372  1.00  0.00     0.007 C 
HETATM   13  C5  UNL     1      27.420  -0.648  53.201  1.00  0.00     0.088 C 
BRANCH  13  14
HETATM   14  C6  UNL     1      28.809  -0.337  53.612  1.00  0.00     0.408 C 
HETATM   15  F1  UNL     1      29.636  -1.360  53.142  1.00  0.00    -0.167 F 
HETATM   16  F2  UNL     1      29.263   0.879  53.166  1.00  0.00    -0.167 F 
HETATM   17  F3  UNL     1      28.873  -0.368  54.992  1.00  0.00    -0.167 F 
ENDBRANCH  13  14
ENDBRANCH  11  12
ENDBRANCH   7   9
ENDBRANCH   6   7
ENDBRANCH   1   6
BRANCH   3  18
HETATM   18  C10 UNL     1      29.763   6.000  47.715  1.00  0.00     0.258 C 
BRANCH  18  19
HETATM   19  O1  UNL     1      30.631   5.032  48.203  1.00  0.00    -0.340 OA
BRANCH  19  20
HETATM   20  C11 UNL     1      31.996   5.026  48.190  1.00  0.00     0.112 A 
HETATM   21  C12 UNL     1      32.636   4.054  47.450  1.00  0.00     0.069 A 
HETATM   22 CL1  UNL     1      31.712   2.865  46.554  1.00  0.00    -0.081 Cl
HETATM   23  C13 UNL     1      34.019   3.981  47.386  1.00  0.00     0.027 A 
HETATM   24  C14 UNL     1      34.800   4.905  48.082  1.00  0.00     0.003 A 
HETATM   25  C15 UNL     1      34.171   5.889  48.831  1.00  0.00     0.027 A 
HETATM   26  C16 UNL     1      32.791   5.930  48.871  1.00  0.00     0.069 A 
HETATM   27 CL2  UNL     1      32.031   7.174  49.818  1.00  0.00    -0.081 Cl
ENDBRANCH  19  20
ENDBRANCH  18  19
ENDBRANCH   3  18
TORSDOF 8
ENDMDL
