ROOT
HETATM    1  C1  UNL     1      20.011   0.415  51.386  1.00  0.00     0.049 C 
HETATM    2  C2  UNL     1      21.298   0.279  52.085  1.00  0.00    -0.051 A 
HETATM    3  C3  UNL     1      21.373  -0.503  53.237  1.00  0.00     0.040 A 
HETATM    4  C4  UNL     1      22.569  -0.664  53.934  1.00  0.00     0.072 A 
HETATM    5  N1  UNL     1      22.635  -1.420  55.042  1.00  0.00    -0.241 NA
HETATM    6  C5  UNL     1      23.809  -1.546  55.681  1.00  0.00     0.236 A 
HETATM    7  N2  UNL     1      24.928  -0.939  55.249  1.00  0.00    -0.223 NA
HETATM    8  C6  UNL     1      24.949  -0.153  54.131  1.00  0.00     0.144 A 
HETATM    9  C15 UNL     1      23.725  -0.050  53.507  1.00  0.00     0.040 A 
HETATM   10  C16 UNL     1      23.621   0.713  52.372  1.00  0.00     0.027 A 
HETATM   11  C17 UNL     1      22.464   0.902  51.648  1.00  0.00    -0.028 A 
ENDROOT
BRANCH   8  12
HETATM   12  N3  UNL     1      26.145   0.484  53.699  1.00  0.00    -0.330 N 
HETATM   13  C7  UNL     1      26.645   1.822  53.340  1.00  0.00     0.135 C 
HETATM   14  C8  UNL     1      28.048   1.847  53.914  1.00  0.00     0.061 C 
HETATM   15  C9  UNL     1      28.477   0.448  53.638  1.00  0.00    -0.030 A 
HETATM   16  C10 UNL     1      29.740  -0.037  53.516  1.00  0.00     0.009 A 
HETATM   17  C14 UNL     1      27.310  -0.315  53.521  1.00  0.00     0.042 A 
HETATM   18  C11 UNL     1      29.922  -1.380  53.257  1.00  0.00     0.001 A 
HETATM   19  C12 UNL     1      28.818  -2.198  53.129  1.00  0.00     0.002 A 
HETATM   20  C13 UNL     1      27.561  -1.654  53.261  1.00  0.00     0.030 A 
ENDBRANCH   8  12
BRANCH  11  21
HETATM   21  C18 UNL     1      22.373   1.722  50.435  1.00  0.00     0.203 C 
BRANCH  21  22
HETATM   22  O1  UNL     1      23.539   2.494  50.272  1.00  0.00    -0.396 OA
HETATM   23  H17 UNL     1      23.886   2.757  51.150  1.00  0.00     0.209 HD
ENDBRANCH  21  22
ENDBRANCH  11  21
TORSDOF 3
ENDMDL
