ROOT
HETATM    1  C9  UNL     1      24.290   3.122  50.622  1.00  0.00     0.058 A 
HETATM    2  C10 UNL     1      24.238   4.192  49.780  1.00  0.00     0.019 A 
HETATM    3  C11 UNL     1      25.349   4.697  49.167  1.00  0.00     0.001 A 
HETATM    4  C12 UNL     1      26.575   4.108  49.401  1.00  0.00     0.002 A 
HETATM    5  C13 UNL     1      26.607   3.029  50.254  1.00  0.00     0.030 A 
HETATM    6  C14 UNL     1      25.495   2.514  50.875  1.00  0.00     0.044 A 
ENDROOT
BRANCH   1   7
HETATM    7  C8  UNL     1      23.079   2.632  51.242  1.00  0.00     0.258 C 
HETATM    8  N1  UNL     1      22.546   1.371  50.859  1.00  0.00    -0.323 N 
HETATM    9  H7  UNL     1      22.934   0.695  50.135  1.00  0.00     0.169 HD
HETATM   10  O1  UNL     1      22.245   2.982  52.100  1.00  0.00    -0.267 OA
BRANCH   8  11
HETATM   11  C4  UNL     1      21.353   0.772  51.400  1.00  0.00     0.035 C 
HETATM   12  C3  UNL     1      20.230   0.837  50.715  1.00  0.00     0.029 C 
BRANCH  12  13
HETATM   13  C2  UNL     1      19.013   0.241  51.233  1.00  0.00    -0.008 C 
HETATM   14  C1  UNL     1      17.932   0.168  50.489  1.00  0.00     0.011 C 
ENDBRANCH  12  13
BRANCH  11  15
HETATM   15  C5  UNL     1      21.490   0.124  52.697  1.00  0.00     0.034 C 
HETATM   16  C6  UNL     1      22.505  -0.473  53.282  1.00  0.00     0.091 C 
BRANCH  16  17
HETATM   17  C7  UNL     1      22.502  -1.092  54.611  1.00  0.00     0.408 C 
HETATM   18  F1  UNL     1      23.758  -1.164  55.202  1.00  0.00    -0.167 F 
HETATM   19  F2  UNL     1      21.952  -2.346  54.663  1.00  0.00    -0.167 F 
HETATM   20  F3  UNL     1      21.753  -0.282  55.452  1.00  0.00    -0.167 F 
ENDBRANCH  16  17
ENDBRANCH  11  15
ENDBRANCH   8  11
ENDBRANCH   1   7
BRANCH   6  21
HETATM   21  N2  UNL     1      25.708   1.396  51.710  1.00  0.00    -0.385 N 
HETATM   22  H12 UNL     1      25.392   0.525  51.255  1.00  0.00     0.160 HD
BRANCH  21  23
HETATM   23  C15 UNL     1      26.234   1.122  53.006  1.00  0.00     0.158 C 
BRANCH  23  24
HETATM   24  C16 UNL     1      27.187  -0.001  53.089  1.00  0.00    -0.038 A 
HETATM   25  C17 UNL     1      28.483  -0.132  53.505  1.00  0.00     0.028 A 
HETATM   26  C18 UNL     1      29.134  -1.344  53.491  1.00  0.00     0.116 A 
HETATM   27  N3  UNL     1      28.562  -2.481  53.072  1.00  0.00    -0.273 NA
HETATM   28  C19 UNL     1      27.290  -2.407  52.653  1.00  0.00     0.116 A 
HETATM   29  C20 UNL     1      26.609  -1.208  52.655  1.00  0.00     0.028 A 
ENDBRANCH  23  24
ENDBRANCH  21  23
ENDBRANCH   6  21
TORSDOF 8
ENDMDL
