ROOT
HETATM    1  C2  UNL     1      22.021   2.834  51.332  1.00  0.00     0.386 C 
HETATM    2  O1  UNL     1      22.156   2.291  52.740  1.00  0.00    -0.335 OA
HETATM    3  C3  UNL     1      23.250   1.321  52.807  1.00  0.00     0.128 A 
HETATM    4  C4  UNL     1      24.617   1.252  52.716  1.00  0.00     0.119 A 
HETATM    5  C5  UNL     1      26.107   1.481  52.580  1.00  0.00     0.393 A 
HETATM    6  N2  UNL     1      27.122   2.259  52.283  1.00  0.00     0.247 N 
HETATM    7  C6  UNL     1      28.113   2.108  53.299  1.00  0.00     0.564 A 
HETATM    8  N3  UNL     1      27.266   2.300  52.338  1.00  0.00     0.247 N 
HETATM    9  C8  UNL     1      26.070   1.901  51.953  1.00  0.00     0.389 A 
HETATM   10  C9  UNL     1      25.189   0.863  52.726  1.00  0.00     0.117 A 
HETATM   11  C10 UNL     1      24.130   0.256  52.881  1.00  0.00     0.100 A 
HETATM   12  C11 UNL     1      22.867   0.027  53.003  1.00  0.00     0.068 A 
HETATM   13  C13 UNL     1      25.608   2.726  50.577  1.00  0.00     0.105 C 
HETATM   14  C14 UNL     1      24.169   2.742  50.841  1.00  0.00    -0.015 C 
HETATM   15  C15 UNL     1      23.273   3.668  51.234  1.00  0.00    -0.029 C 
HETATM   16  C16 UNL     1      23.458   5.100  51.522  1.00  0.00     0.048 C 
ENDROOT
BRANCH   1  17
HETATM   17  N1  UNL     1      20.813   3.435  51.071  1.00  0.00     0.112 N 
HETATM   18  C1  UNL     1      19.788   2.968  52.025  1.00  0.00     0.310 C 
HETATM   19  H4  UNL     1      20.917   4.473  51.382  1.00  0.00     0.319 HD
ENDBRANCH   1  17
BRANCH  12  20
HETATM   20  O3  UNL     1      22.447  -1.267  53.201  1.00  0.00    -0.361 OA
HETATM   21  C12 UNL     1      21.357  -1.450  54.120  1.00  0.00     0.209 C 
ENDBRANCH  12  20
BRANCH   7  22
HETATM   22  O2  UNL     1      28.614   1.592  54.452  1.00  0.00    -0.328 OA
HETATM   23  C7  UNL     1      28.685   0.296  54.876  1.00  0.00     0.207 C 
ENDBRANCH   7  22
TORSDOF 4
ENDMDL
