ROOT
HETATM    1  C3  UNL     1      26.067   2.506  51.016  1.00  0.00     0.006 C 
HETATM    2  C4  UNL     1      26.449   1.319  51.388  1.00  0.00     0.041 C 
HETATM    3  C5  UNL     1      26.573   0.676  52.634  1.00  0.00     0.029 A 
HETATM    4  C6  UNL     1      27.879   1.144  52.907  1.00  0.00     0.133 A 
HETATM    5  N2  UNL     1      28.649   0.887  54.028  1.00  0.00    -0.253 NA
HETATM    6  C7  UNL     1      28.071   0.086  54.974  1.00  0.00     0.234 A 
HETATM    7  N3  UNL     1      26.837  -0.371  54.737  1.00  0.00    -0.224 NA
HETATM    8  C8  UNL     1      26.121  -0.106  53.647  1.00  0.00     0.141 A 
HETATM    9  N4  UNL     1      24.901  -0.820  53.785  1.00  0.00    -0.343 N 
HETATM   10  C9  UNL     1      23.577  -0.325  53.844  1.00  0.00     0.016 C 
HETATM   11  C10 UNL     1      22.567  -0.682  54.661  1.00  0.00     0.027 C 
HETATM   12  C11 UNL     1      21.313  -0.474  53.897  1.00  0.00     0.029 C 
HETATM   13  C12 UNL     1      21.626  -0.019  52.694  1.00  0.00     0.040 C 
HETATM   14  C13 UNL     1      22.898   0.728  53.016  1.00  0.00     0.116 C 
HETATM   15  N5  UNL     1      20.786  -0.342  51.568  1.00  0.00    -0.265 NA
HETATM   16  C14 UNL     1      20.966   0.268  50.462  1.00  0.00     0.116 C 
HETATM   17  C15 UNL     1      21.496   1.158  49.454  1.00  0.00     0.015 C 
HETATM   18  C16 UNL     1      21.707   1.807  48.338  1.00  0.00    -0.024 C 
HETATM   19  C17 UNL     1      22.720   2.804  48.144  1.00  0.00    -0.001 C 
HETATM   20  C18 UNL     1      23.534   3.094  49.198  1.00  0.00     0.026 C 
HETATM   21  C19 UNL     1      24.634   3.976  49.496  1.00  0.00     0.011 C 
HETATM   22  C20 UNL     1      25.922   3.310  49.826  1.00  0.00     0.057 C 
HETATM   23  H8  UNL     1      25.006  -1.886  53.855  1.00  0.00     0.167 HD
ENDROOT
BRANCH   1  24
HETATM   24  N1  UNL     1      25.744   3.161  52.185  1.00  0.00    -0.387 N 
HETATM   25  H4  UNL     1      26.540   3.693  52.663  1.00  0.00     0.159 HD
BRANCH  24  26
HETATM   26  C2  UNL     1      24.458   3.184  52.812  1.00  0.00     0.188 C 
BRANCH  26  27
HETATM   27  C1  UNL     1      23.809   4.524  52.855  1.00  0.00     0.250 C 
HETATM   28  O1  UNL     1      22.708   4.812  52.415  1.00  0.00    -0.305 OA
ENDBRANCH  26  27
ENDBRANCH  24  26
ENDBRANCH   1  24
TORSDOF 3
ENDMDL
