ROOT
HETATM    1  C1  UNL     1      27.924   5.053  48.583  1.00  0.00     0.043 C 
HETATM    2  C2  UNL     1      26.717   5.941  48.734  1.00  0.00    -0.080 C 
HETATM    3  C3  UNL     1      25.670   5.920  49.557  1.00  0.00     0.014 C 
HETATM    4  C4  UNL     1      24.757   7.038  49.283  1.00  0.00     0.003 C 
HETATM    5  C5  UNL     1      23.459   7.095  49.569  1.00  0.00     0.067 A 
HETATM    6  N1  UNL     1      22.869   8.333  49.165  1.00  0.00    -0.244 NA
HETATM    7  C6  UNL     1      21.617   8.568  49.350  1.00  0.00     0.232 A 
HETATM    8  N2  UNL     1      20.769   7.589  49.974  1.00  0.00    -0.256 NA
HETATM    9  C7  UNL     1      21.291   6.448  50.355  1.00  0.00     0.116 A 
HETATM   10  C8  UNL     1      22.718   5.999  50.225  1.00  0.00     0.082 A 
HETATM   11  C9  UNL     1      23.192   5.830  51.648  1.00  0.00     0.039 A 
HETATM   12  C10 UNL     1      23.654   4.852  52.437  1.00  0.00     0.097 A 
HETATM   13  C11 UNL     1      23.786   3.516  51.870  1.00  0.00     0.102 A 
HETATM   14  C19 UNL     1      23.489   3.172  50.623  1.00  0.00     0.045 A 
HETATM   15  P1  UNL     1      22.842   4.375  49.373  1.00  0.00    -0.078 P 
HETATM   16  C20 UNL     1      25.660   8.028  48.629  1.00  0.00     0.209 C 
HETATM   17  F1  UNL     1      26.458   8.675  49.576  1.00  0.00    -0.244 F 
HETATM   18  C21 UNL     1      26.564   7.122  47.821  1.00  0.00     0.076 C 
HETATM   19  H24 UNL     1      21.586   3.931  48.802  1.00  0.00     0.063 HD
ENDROOT
BRANCH  12  20
HETATM   20  O1  UNL     1      23.997   5.112  53.757  1.00  0.00    -0.358 OA
HETATM   21  H8  UNL     1      24.650   4.588  54.297  1.00  0.00     0.217 HD
ENDBRANCH  12  20
BRANCH  13  22
HETATM   22  O2  UNL     1      24.255   2.444  52.617  1.00  0.00    -0.348 OA
BRANCH  22  23
HETATM   23  C12 UNL     1      23.831   1.128  52.482  1.00  0.00     0.177 C 
BRANCH  23  24
HETATM   24  C13 UNL     1      24.576   0.161  53.382  1.00  0.00     0.057 C 
BRANCH  24  25
HETATM   25  C14 UNL     1      25.845   0.839  53.843  1.00  0.00     0.274 C 
BRANCH  25  26
HETATM   26  N3  UNL     1      26.934   0.656  52.944  1.00  0.00     0.092 N 
HETATM   27  C15 UNL     1      27.830  -0.403  53.382  1.00  0.00     0.298 C 
HETATM   28  C16 UNL     1      28.653  -0.016  54.569  1.00  0.00     0.198 C 
HETATM   29  O3  UNL     1      28.516   1.322  54.924  1.00  0.00    -0.388 OA
HETATM   30  C17 UNL     1      28.667   2.165  53.832  1.00  0.00     0.198 C 
HETATM   31  C18 UNL     1      27.734   1.812  52.685  1.00  0.00     0.298 C 
ENDBRANCH  25  26
ENDBRANCH  24  25
ENDBRANCH  23  24
ENDBRANCH  22  23
ENDBRANCH  13  22
TORSDOF 6
ENDMDL
