ROOT
HETATM    1  C4  UNL     1      27.365   1.450  53.027  1.00  0.00     0.069 A 
HETATM    2  N1  UNL     1      27.975   2.460  52.557  1.00  0.00    -0.248 NA
HETATM    3  C5  UNL     1      27.019   2.583  51.483  1.00  0.00     0.068 A 
HETATM    4  C6  UNL     1      26.194   2.866  50.456  1.00  0.00     0.032 C 
HETATM    5  C7  UNL     1      25.189   2.814  49.419  1.00  0.00     0.206 C 
HETATM    6  O1  UNL     1      24.126   3.753  49.541  1.00  0.00    -0.342 OA
HETATM    7  C8  UNL     1      23.324   3.484  50.688  1.00  0.00     0.135 A 
HETATM    8  C9  UNL     1      22.574   2.440  50.182  1.00  0.00     0.104 A 
HETATM    9  C11 UNL     1      21.601   1.750  50.875  1.00  0.00     0.048 A 
HETATM   10  C12 UNL     1      21.380   2.161  52.189  1.00  0.00    -0.033 A 
HETATM   11  C13 UNL     1      22.128   3.205  52.686  1.00  0.00     0.048 A 
HETATM   12  C14 UNL     1      23.090   3.876  51.977  1.00  0.00     0.104 A 
HETATM   13  C16 UNL     1      20.389   1.443  53.072  1.00  0.00     0.188 C 
HETATM   14  N2  UNL     1      21.157   0.451  53.796  1.00  0.00    -0.281 NA
HETATM   15  C17 UNL     1      22.371   0.258  53.639  1.00  0.00     0.196 C 
HETATM   16  N3  UNL     1      23.710  -0.075  53.580  1.00  0.00    -0.381 N 
HETATM   17  C18 UNL     1      24.937  -0.480  52.929  1.00  0.00     0.148 C 
HETATM   18  C19 UNL     1      25.319   0.631  51.988  1.00  0.00     0.009 C 
HETATM   19  C20 UNL     1      26.339   1.440  52.031  1.00  0.00     0.019 A 
HETATM   20  H20 UNL     1      23.781   0.053  54.640  1.00  0.00     0.160 HD
ENDROOT
BRANCH   1  21
HETATM   21  C3  UNL     1      28.166   1.105  54.180  1.00  0.00     0.028 C 
HETATM   22  C2  UNL     1      29.058   0.193  54.405  1.00  0.00    -0.029 C 
HETATM   23  C1  UNL     1      29.735  -0.921  53.734  1.00  0.00     0.036 C 
ENDBRANCH   1  21
BRANCH   8  24
HETATM   24  O2  UNL     1      22.569   1.817  48.917  1.00  0.00    -0.353 OA
HETATM   25  C10 UNL     1      21.419   1.818  48.102  1.00  0.00     0.210 C 
ENDBRANCH   8  24
BRANCH  12  26
HETATM   26  O3  UNL     1      23.859   4.926  52.442  1.00  0.00    -0.353 OA
HETATM   27  C15 UNL     1      23.959   6.166  51.780  1.00  0.00     0.210 C 
ENDBRANCH  12  26
TORSDOF 3
ENDMDL
