ROOT
HETATM    1  N1  UNL     1      34.602   6.591  47.600  1.00  0.00    -0.191 NA
HETATM    2  C1  UNL     1      33.447   6.520  47.694  1.00  0.00     0.101 C 
HETATM    3  C2  UNL     1      32.017   6.453  47.817  1.00  0.00     0.062 A 
HETATM    4  C3  UNL     1      31.321   7.587  47.443  1.00  0.00     0.026 A 
HETATM    5  C4  UNL     1      29.944   7.618  47.525  1.00  0.00     0.033 A 
HETATM    6  C5  UNL     1      29.316   6.482  47.990  1.00  0.00     0.056 A 
HETATM    7  N5  UNL     1      30.007   5.386  48.350  1.00  0.00    -0.260 NA
HETATM    8  C16 UNL     1      31.353   5.326  48.281  1.00  0.00     0.140 A 
ENDROOT
BRANCH   6   9
HETATM    9  C6  UNL     1      27.862   6.452  48.100  1.00  0.00     0.029 C 
HETATM   10  C7  UNL     1      27.202   5.568  48.831  1.00  0.00    -0.009 C 
BRANCH  10  11
HETATM   11  C8  UNL     1      25.709   5.531  48.949  1.00  0.00     0.137 C 
BRANCH  11  12
HETATM   12  N2  UNL     1      25.359   4.167  49.373  1.00  0.00    -0.233 NA
HETATM   13  H7  UNL     1      25.984   3.472  48.914  1.00  0.00     0.146 HD
BRANCH  12  14
HETATM   14  N3  UNL     1      25.451   4.026  50.745  1.00  0.00    -0.273 N 
HETATM   15  C9  UNL     1      26.258   2.918  51.129  1.00  0.00     0.335 C 
HETATM   16  O1  UNL     1      26.803   2.181  50.255  1.00  0.00    -0.246 OA
HETATM   17  N4  UNL     1      26.500   2.573  52.505  1.00  0.00    -0.308 N 
HETATM   18  H9  UNL     1      26.066   3.159  53.256  1.00  0.00     0.170 HD
HETATM   19  H8  UNL     1      25.053   4.562  51.565  1.00  0.00     0.185 HD
BRANCH  17  20
HETATM   20  C10 UNL     1      27.315   1.453  52.852  1.00  0.00     0.038 A 
HETATM   21  C11 UNL     1      28.477   1.872  53.499  1.00  0.00     0.032 A 
HETATM   22  C12 UNL     1      29.424   0.959  53.931  1.00  0.00     0.046 A 
HETATM   23  C13 UNL     1      29.199  -0.384  53.713  1.00  0.00     0.138 A 
HETATM   24  F1  UNL     1      30.106  -1.311  54.123  1.00  0.00    -0.204 F 
HETATM   25  C14 UNL     1      28.051  -0.792  53.074  1.00  0.00     0.074 A 
HETATM   26 CL1  UNL     1      27.700  -2.492  52.761  1.00  0.00    -0.081 Cl
HETATM   27  C15 UNL     1      27.108   0.096  52.642  1.00  0.00     0.056 A 
ENDBRANCH  17  20
ENDBRANCH  12  14
ENDBRANCH  11  12
ENDBRANCH  10  11
ENDBRANCH   6   9
TORSDOF 5
ENDMDL
