ROOT
HETATM    1  C2  UNL     1      26.273   1.104  54.126  1.00  0.00     0.028 C 
HETATM    2  C3  UNL     1      25.982   0.031  53.414  1.00  0.00     0.037 C 
HETATM    3  C4  UNL     1      25.336   0.626  52.214  1.00  0.00    -0.037 C 
HETATM    4  C5  UNL     1      24.061   0.202  52.107  1.00  0.00     0.004 C 
HETATM    5  C6  UNL     1      22.729   0.734  51.700  1.00  0.00     0.100 C 
HETATM    6  C7  UNL     1      22.917   1.848  50.698  1.00  0.00     0.025 C 
HETATM    7  C8  UNL     1      23.705   2.939  50.409  1.00  0.00     0.050 C 
HETATM    8  C9  UNL     1      24.658   3.651  51.447  1.00  0.00     0.081 A 
HETATM    9  C10 UNL     1      25.931   2.938  51.260  1.00  0.00    -0.013 C 
HETATM   10  C11 UNL     1      26.084   1.587  51.340  1.00  0.00     0.008 C 
HETATM   11  C12 UNL     1      23.885   3.237  52.731  1.00  0.00    -0.008 A 
HETATM   12  C13 UNL     1      25.048   2.941  53.032  1.00  0.00     0.135 A 
HETATM   13  N2  UNL     1      26.054   2.464  53.827  1.00  0.00    -0.385 N 
HETATM   14  C14 UNL     1      22.473   3.387  52.486  1.00  0.00     0.034 C 
HETATM   15  C15 UNL     1      21.685   4.270  51.974  1.00  0.00    -0.000 C 
HETATM   16  C16 UNL     1      20.358   3.666  52.070  1.00  0.00    -0.019 C 
HETATM   17  C17 UNL     1      20.442   2.412  52.574  1.00  0.00     0.042 C 
HETATM   18  S1  UNL     1      21.756   1.302  53.133  1.00  0.00    -0.129 SA
HETATM   19  H12 UNL     1      26.786   3.003  54.322  1.00  0.00     0.160 HD
ENDROOT
BRANCH   1  20
HETATM   20  C1  UNL     1      26.866   0.322  55.197  1.00  0.00     0.239 C 
BRANCH  20  21
HETATM   21  N1  UNL     1      28.303   0.439  55.186  1.00  0.00    -0.135 NA
HETATM   22  O1  UNL     1      28.870   1.451  54.871  1.00  0.00    -0.067 OA
ENDBRANCH  20  21
ENDBRANCH   1  20
BRANCH   7  23
HETATM   23  O2  UNL     1      23.547   3.322  49.087  1.00  0.00    -0.364 OA
HETATM   24  H7  UNL     1      24.361   3.502  48.495  1.00  0.00     0.217 HD
ENDBRANCH   7  23
TORSDOF 3
ENDMDL
