ROOT
HETATM    1  C3  UNL     1      26.247   1.504  53.191  1.00  0.00     0.216 C 
HETATM    2  N1  UNL     1      25.355   2.306  53.890  1.00  0.00    -0.392 N 
HETATM    3  C4  UNL     1      24.506   3.261  53.336  1.00  0.00     0.173 C 
HETATM    4  C5  UNL     1      23.403   2.770  52.495  1.00  0.00     0.019 C 
HETATM    5  C14 UNL     1      22.461   2.107  51.779  1.00  0.00     0.003 C 
HETATM    6  C15 UNL     1      22.631   0.607  51.924  1.00  0.00     0.056 C 
HETATM    7  C16 UNL     1      23.335   0.355  53.185  1.00  0.00    -0.025 C 
HETATM    8  C17 UNL     1      24.391  -0.080  53.790  1.00  0.00    -0.005 C 
HETATM    9  C18 UNL     1      25.720  -0.675  53.398  1.00  0.00     0.197 C 
HETATM   10  O1  UNL     1      26.651   0.313  53.923  1.00  0.00    -0.363 OA
HETATM   11  H7  UNL     1      25.443   2.265  54.926  1.00  0.00     0.156 HD
ENDROOT
BRANCH   4  12
HETATM   12  N2  UNL     1      22.842   4.064  52.083  1.00  0.00    -0.387 N 
HETATM   13  H10 UNL     1      21.867   4.477  51.967  1.00  0.00     0.159 HD
BRANCH  12  14
HETATM   14  C6  UNL     1      23.698   5.172  51.702  1.00  0.00     0.093 A 
HETATM   15  C7  UNL     1      23.027   6.334  50.992  1.00  0.00     0.040 A 
HETATM   16  C8  UNL     1      24.001   5.468  50.280  1.00  0.00     0.016 A 
HETATM   17  C9  UNL     1      23.515   4.571  49.164  1.00  0.00     0.040 C 
HETATM   18  C13 UNL     1      25.355   6.007  49.880  1.00  0.00     0.232 C 
HETATM   19  C10 UNL     1      24.376   3.352  49.165  1.00  0.00    -0.030 C 
HETATM   20  C11 UNL     1      25.667   3.573  49.393  1.00  0.00    -0.028 C 
HETATM   21  C12 UNL     1      26.313   4.887  49.640  1.00  0.00     0.063 C 
BRANCH  18  22
HETATM   22  N3  UNL     1      25.864   6.976  50.832  1.00  0.00     0.084 N 
HETATM   23  H21 UNL     1      25.544   6.808  51.811  1.00  0.00     0.313 HD
HETATM   24  H22 UNL     1      25.715   7.942  50.500  1.00  0.00     0.313 HD
ENDBRANCH  18  22
ENDBRANCH  12  14
ENDBRANCH   4  12
BRANCH   1  25
HETATM   25  C2  UNL     1      27.367   2.085  52.471  1.00  0.00     0.049 C 
HETATM   26  C1  UNL     1      28.526   2.449  53.357  1.00  0.00     0.009 C 
ENDBRANCH   1  25
TORSDOF 4
ENDMDL
