ROOT
HETATM    1  C2  UNL     1      21.450   0.574  53.462  1.00  0.00     0.076 A 
HETATM    2  C3  UNL     1      20.546   1.574  53.096  1.00  0.00     0.069 A 
HETATM    3  C4  UNL     1      21.003   2.645  52.374  1.00  0.00     0.066 A 
HETATM    4  C5  UNL     1      22.339   2.699  52.031  1.00  0.00     0.017 A 
HETATM    5  C6  UNL     1      23.237   1.717  52.388  1.00  0.00     0.025 A 
HETATM    6  C7  UNL     1      22.805   0.631  53.114  1.00  0.00    -0.024 A 
HETATM    7  C15 UNL     1      22.600   3.788  51.343  1.00  0.00     0.044 A 
HETATM    8  C21 UNL     1      21.335   4.550  51.198  1.00  0.00     0.207 A 
HETATM    9  N4  UNL     1      20.384   3.699  51.909  1.00  0.00    -0.283 NA
ENDROOT
BRANCH   7  10
HETATM   10  N2  UNL     1      23.768   4.341  50.754  1.00  0.00    -0.351 N 
HETATM   11  C16 UNL     1      24.813   3.675  50.058  1.00  0.00     0.136 A 
HETATM   12  C17 UNL     1      25.835   4.397  49.631  1.00  0.00     0.157 A 
HETATM   13  F1  UNL     1      26.823   3.732  48.969  1.00  0.00    -0.202 F 
HETATM   14  C18 UNL     1      25.924   5.819  49.825  1.00  0.00     0.064 A 
HETATM   15  C19 UNL     1      24.949   6.450  50.455  1.00  0.00     0.025 A 
HETATM   16  C20 UNL     1      23.745   5.787  50.988  1.00  0.00     0.158 A 
BRANCH  14  17
HETATM   17  N3  UNL     1      27.021   6.600  49.369  1.00  0.00    -0.397 N 
HETATM   18  H21 UNL     1      28.028   6.358  49.429  1.00  0.00     0.156 HD
HETATM   19  H22 UNL     1      26.854   7.541  48.910  1.00  0.00     0.156 HD
ENDBRANCH  14  17
ENDBRANCH   7  10
BRANCH   6  20
HETATM   20  C8  UNL     1      23.586  -0.532  53.602  1.00  0.00     0.043 C 
BRANCH  20  21
HETATM   21  C9  UNL     1      25.020  -0.488  53.137  1.00  0.00     0.024 C 
BRANCH  21  22
HETATM   22  C10 UNL     1      25.982  -0.220  54.247  1.00  0.00     0.117 C 
BRANCH  22  23
HETATM   23  N1  UNL     1      27.273   0.214  53.895  1.00  0.00    -0.408 N 
HETATM   24  C11 UNL     1      28.279   0.232  54.892  1.00  0.00     0.143 C 
HETATM   25  C12 UNL     1      29.373   1.202  54.452  1.00  0.00     0.187 C 
HETATM   26  O2  UNL     1      28.744   2.434  54.325  1.00  0.00    -0.388 OA
HETATM   27  C13 UNL     1      27.942   2.428  53.217  1.00  0.00     0.187 C 
HETATM   28  C14 UNL     1      27.438   1.072  52.784  1.00  0.00     0.143 C 
ENDBRANCH  22  23
ENDBRANCH  21  22
ENDBRANCH  20  21
ENDBRANCH   6  20
BRANCH   1  29
HETATM   29  O1  UNL     1      20.906  -0.474  54.192  1.00  0.00    -0.355 OA
HETATM   30  C1  UNL     1      19.799  -1.231  53.801  1.00  0.00     0.210 C 
ENDBRANCH   1  29
TORSDOF 7
ENDMDL
