ROOT
HETATM    1  C2  UNL     1      22.223  -0.429  53.893  1.00  0.00     0.270 A 
HETATM    2  N1  UNL     1      22.208   0.673  53.143  1.00  0.00    -0.188 NA
HETATM    3  C3  UNL     1      23.303   1.323  52.728  1.00  0.00     0.147 A 
HETATM    4  C11 UNL     1      24.520   0.830  53.092  1.00  0.00     0.042 A 
HETATM    5  C12 UNL     1      25.661   1.484  52.675  1.00  0.00     0.057 A 
HETATM    6  C13 UNL     1      26.869   0.930  53.081  1.00  0.00     0.102 A 
HETATM    7  C15 UNL     1      26.972  -0.206  53.856  1.00  0.00     0.103 A 
HETATM    8  C17 UNL     1      25.788  -0.802  54.232  1.00  0.00     0.072 A 
HETATM    9  C18 UNL     1      24.550  -0.312  53.869  1.00  0.00     0.078 A 
HETATM   10  N3  UNL     1      23.420  -0.930  54.262  1.00  0.00    -0.206 NA
ENDROOT
BRANCH   3  11
HETATM   11  N2  UNL     1      23.111   2.485  51.932  1.00  0.00    -0.335 N 
HETATM   12  C4  UNL     1      23.192   3.854  52.463  1.00  0.00     0.158 C 
BRANCH  11  13
HETATM   13  C5  UNL     1      22.822   2.321  50.548  1.00  0.00     0.035 A 
HETATM   14  C6  UNL     1      21.964   1.375  50.081  1.00  0.00     0.029 A 
HETATM   15  C7  UNL     1      21.654   1.177  48.746  1.00  0.00     0.002 A 
HETATM   16  C8  UNL     1      22.243   1.985  47.801  1.00  0.00     0.000 A 
HETATM   17  C9  UNL     1      23.131   2.966  48.246  1.00  0.00     0.002 A 
HETATM   18  C10 UNL     1      23.407   3.123  49.589  1.00  0.00     0.029 A 
ENDBRANCH  11  13
ENDBRANCH   3  11
BRANCH   1  19
HETATM   19  O1  UNL     1      21.087  -1.097  54.319  1.00  0.00    -0.324 OA
HETATM   20  C1  UNL     1      19.828  -0.903  53.716  1.00  0.00     0.213 C 
ENDBRANCH   1  19
BRANCH   6  21
HETATM   21  O2  UNL     1      28.014   1.589  52.661  1.00  0.00    -0.353 OA
HETATM   22  C14 UNL     1      28.645   2.542  53.487  1.00  0.00     0.210 C 
ENDBRANCH   6  21
BRANCH   7  23
HETATM   23  O3  UNL     1      28.240  -0.640  54.181  1.00  0.00    -0.353 OA
HETATM   24  C16 UNL     1      28.939  -1.546  53.369  1.00  0.00     0.210 C 
ENDBRANCH   7  23
TORSDOF 5
ENDMDL
