ROOT
HETATM    1  C13 UNL     1      23.251   6.026  50.762  1.00  0.00     0.031 C 
ENDROOT
BRANCH   1   2
HETATM    2  C12 UNL     1      22.891   4.849  50.326  1.00  0.00     0.066 A 
HETATM    3  C2  UNL     1      22.189   3.983  51.127  1.00  0.00     0.017 A 
HETATM    4  C1  UNL     1      21.915   4.411  52.323  1.00  0.00     0.049 C 
HETATM    5  C3  UNL     1      21.773   2.728  50.744  1.00  0.00     0.138 A 
HETATM    6  N2  UNL     1      22.091   2.350  49.486  1.00  0.00    -0.224 NA
HETATM    7  C11 UNL     1      22.780   3.192  48.690  1.00  0.00     0.235 A 
HETATM    8  N3  UNL     1      23.176   4.415  49.085  1.00  0.00    -0.242 NA
BRANCH   5   9
HETATM    9  N1  UNL     1      21.044   1.955  51.711  1.00  0.00    -0.340 N 
HETATM   10  H3  UNL     1      19.992   2.093  51.670  1.00  0.00     0.167 HD
BRANCH   9  11
HETATM   11  C4  UNL     1      21.598   1.079  52.650  1.00  0.00     0.033 A 
HETATM   12  C5  UNL     1      22.932   0.728  52.595  1.00  0.00     0.030 A 
HETATM   13  C6  UNL     1      23.480  -0.139  53.515  1.00  0.00     0.009 A 
HETATM   14  C7  UNL     1      22.691  -0.676  54.520  1.00  0.00    -0.062 A 
HETATM   15  C8  UNL     1      23.130  -1.618  55.579  1.00  0.00     0.048 C 
HETATM   16  C9  UNL     1      21.357  -0.298  54.538  1.00  0.00     0.009 A 
HETATM   17  C10 UNL     1      20.773   0.567  53.635  1.00  0.00     0.030 A 
ENDBRANCH   9  11
ENDBRANCH   5   9
ENDBRANCH   1   2
BRANCH   1  18
HETATM   18  C14 UNL     1      23.934   7.120  50.034  1.00  0.00     0.198 C 
BRANCH  18  19
HETATM   19  O1  UNL     1      25.253   7.162  50.545  1.00  0.00    -0.378 OA
BRANCH  19  20
HETATM   20  C15 UNL     1      26.109   6.946  49.455  1.00  0.00     0.270 C 
BRANCH  20  21
HETATM   21  C16 UNL     1      26.544   5.544  49.355  1.00  0.00     0.241 C 
HETATM   22  O2  UNL     1      27.349   5.475  48.404  1.00  0.00    -0.271 OA
HETATM   23  N4  UNL     1      26.242   4.374  50.073  1.00  0.00    -0.359 N 
HETATM   24  H17 UNL     1      25.542   4.780  50.782  1.00  0.00     0.162 HD
BRANCH  23  25
HETATM   25  C17 UNL     1      26.487   2.981  50.216  1.00  0.00     0.124 C 
BRANCH  25  26
HETATM   26  C18 UNL     1      26.735   2.497  51.590  1.00  0.00     0.050 C 
BRANCH  26  27
HETATM   27  C19 UNL     1      26.729   1.024  51.762  1.00  0.00     0.274 C 
BRANCH  27  28
HETATM   28  N5  UNL     1      27.219   0.588  53.048  1.00  0.00     0.092 N 
HETATM   29  C20 UNL     1      28.084   1.556  53.628  1.00  0.00     0.298 C 
HETATM   30  C21 UNL     1      29.162   0.975  54.474  1.00  0.00     0.198 C 
HETATM   31  O3  UNL     1      29.867   0.071  53.651  1.00  0.00    -0.388 OA
HETATM   32  C22 UNL     1      29.035  -1.032  53.538  1.00  0.00     0.198 C 
HETATM   33  C23 UNL     1      27.689  -0.747  52.960  1.00  0.00     0.298 C 
ENDBRANCH  27  28
ENDBRANCH  26  27
ENDBRANCH  25  26
ENDBRANCH  23  25
ENDBRANCH  20  21
ENDBRANCH  19  20
ENDBRANCH  18  19
ENDBRANCH   1  18
TORSDOF 11
ENDMDL
