ROOT
HETATM    1  C9  UNL     1      24.750   2.710  52.272  1.00  0.00     0.722 A 
HETATM    2  N3  UNL     1      23.546   2.199  52.576  1.00  0.00    -0.075 NA
HETATM    3  C10 UNL     1      23.387   0.924  53.037  1.00  0.00     0.139 A 
HETATM    4  C11 UNL     1      24.507   0.109  53.207  1.00  0.00     0.053 A 
HETATM    5  C12 UNL     1      25.732   0.654  52.887  1.00  0.00     0.089 A 
HETATM    6  N5  UNL     1      25.818   1.914  52.438  1.00  0.00    -0.062 NA
ENDROOT
BRANCH   1   7
HETATM    7  N2  UNL     1      24.703   4.054  51.820  1.00  0.00    -0.220 N 
HETATM    8  H13 UNL     1      24.685   4.459  52.771  1.00  0.00     0.177 HD
BRANCH   7   9
HETATM    9  C8  UNL     1      24.709   3.919  50.343  1.00  0.00     0.174 C 
BRANCH   9  10
HETATM   10  C7  UNL     1      25.803   4.842  49.851  1.00  0.00     0.245 C 
HETATM   11  N1  UNL     1      25.356   5.887  48.995  1.00  0.00     0.104 N 
HETATM   12  C3  UNL     1      26.461   6.798  48.779  1.00  0.00     0.300 C 
HETATM   13  C4  UNL     1      27.734   6.120  48.434  1.00  0.00    -0.001 C 
HETATM   14  C5  UNL     1      27.954   4.841  48.594  1.00  0.00    -0.027 C 
HETATM   15  C6  UNL     1      26.871   4.027  49.150  1.00  0.00     0.064 C 
BRANCH  11  16
HETATM   16  C2  UNL     1      24.149   6.548  49.371  1.00  0.00     0.342 C 
BRANCH  16  17
HETATM   17  C1  UNL     1      24.312   7.720  50.272  1.00  0.00     0.261 C 
HETATM   18  O1  UNL     1      23.941   7.209  51.326  1.00  0.00    -0.305 OA
ENDBRANCH  16  17
ENDBRANCH  11  16
ENDBRANCH   9  10
ENDBRANCH   7   9
ENDBRANCH   1   7
BRANCH   5  19
HETATM   19  C13 UNL     1      26.932  -0.148  53.042  1.00  0.00     0.011 A 
HETATM   20  C14 UNL     1      28.139   0.399  53.361  1.00  0.00     0.017 A 
HETATM   21  C15 UNL     1      29.182  -0.493  53.465  1.00  0.00     0.020 A 
HETATM   22  C16 UNL     1      29.132  -1.836  53.287  1.00  0.00     0.116 A 
HETATM   23  N4  UNL     1      27.904  -2.350  52.971  1.00  0.00    -0.272 NA
HETATM   24  C17 UNL     1      26.831  -1.528  52.851  1.00  0.00     0.130 A 
ENDBRANCH   5  19
TORSDOF 6
ENDMDL
