ROOT
HETATM    1  C4  UNL     1      22.667   1.821  52.159  1.00  0.00     0.045 A 
HETATM    2  C5  UNL     1      23.696   2.081  53.036  1.00  0.00     0.063 A 
HETATM    3  C6  UNL     1      24.923   2.550  52.622  1.00  0.00     0.085 A 
HETATM    4  C12 UNL     1      25.025   2.733  51.257  1.00  0.00     0.096 A 
HETATM    5  C14 UNL     1      24.001   2.473  50.379  1.00  0.00     0.050 A 
HETATM    6  C15 UNL     1      22.775   2.004  50.801  1.00  0.00    -0.011 A 
ENDROOT
BRANCH   3   7
HETATM    7  N2  UNL     1      26.015   2.838  53.471  1.00  0.00    -0.185 N 
HETATM    8  H8  UNL     1      25.947   3.744  54.013  1.00  0.00     0.184 HD
BRANCH   7   9
HETATM    9  C7  UNL     1      27.179   2.053  53.671  1.00  0.00     0.727 A 
HETATM   10  N3  UNL     1      28.333   2.422  54.233  1.00  0.00    -0.073 NA
HETATM   11  C8  UNL     1      29.412   1.649  54.404  1.00  0.00     0.167 A 
HETATM   12  C9  UNL     1      29.331   0.347  53.962  1.00  0.00     0.074 A 
HETATM   13  C10 UNL     1      28.166  -0.091  53.375  1.00  0.00     0.099 A 
HETATM   14  N5  UNL     1      29.967  -0.917  53.807  1.00  0.00    -0.381 N 
HETATM   15  N4  UNL     1      27.167   0.775  53.264  1.00  0.00    -0.063 NA
HETATM   16  C11 UNL     1      28.747  -1.442  53.173  1.00  0.00     0.182 A 
HETATM   17  H12 UNL     1      30.892  -1.344  54.027  1.00  0.00     0.160 HD
ENDBRANCH   7   9
ENDBRANCH   3   7
BRANCH   4  18
HETATM   18  O2  UNL     1      26.220   3.201  50.735  1.00  0.00    -0.354 OA
HETATM   19  C13 UNL     1      26.299   3.839  49.475  1.00  0.00     0.210 C 
ENDBRANCH   4  18
BRANCH   1  20
HETATM   20  N1  UNL     1      21.436   1.359  52.689  1.00  0.00    -0.327 N 
HETATM   21  C3  UNL     1      21.619   0.022  53.098  1.00  0.00     0.221 C 
HETATM   22  O1  UNL     1      22.603  -0.796  53.085  1.00  0.00    -0.273 OA
HETATM   23  H6  UNL     1      20.439   1.542  52.922  1.00  0.00     0.169 HD
BRANCH  21  24
HETATM   24  C2  UNL     1      20.701  -0.974  53.719  1.00  0.00     0.098 C 
HETATM   25  C1  UNL     1      21.560  -1.887  54.565  1.00  0.00     0.014 C 
ENDBRANCH  21  24
ENDBRANCH   1  20
BRANCH   6  26
HETATM   26  C16 UNL     1      21.748   1.740  49.792  1.00  0.00     0.157 C 
BRANCH  26  27
HETATM   27  N6  UNL     1      21.069   2.861  49.258  1.00  0.00    -0.412 N 
HETATM   28  C17 UNL     1      19.932   3.354  49.941  1.00  0.00     0.143 C 
BRANCH  27  29
HETATM   29  C18 UNL     1      20.937   2.932  47.844  1.00  0.00     0.120 C 
BRANCH  29  30
HETATM   30  C19 UNL     1      22.130   3.493  47.113  1.00  0.00    -0.005 C 
HETATM   31  C20 UNL     1      22.627   4.773  47.732  1.00  0.00     0.011 C 
HETATM   32  C21 UNL     1      21.811   3.697  45.639  1.00  0.00     0.011 C 
ENDBRANCH  29  30
ENDBRANCH  27  29
ENDBRANCH  26  27
ENDBRANCH   6  26
TORSDOF 9
ENDMDL
