ROOT
HETATM    1  N2  UNL     1      23.968   2.912  52.280  1.00  0.00     0.105 N 
HETATM    2  C5  UNL     1      24.381   2.820  50.922  1.00  0.00     0.300 C 
HETATM    3  C6  UNL     1      25.659   2.158  50.665  1.00  0.00     0.003 C 
HETATM    4  C7  UNL     1      26.491   1.703  51.602  1.00  0.00     0.028 C 
HETATM    5  C8  UNL     1      26.105   1.875  53.007  1.00  0.00     0.178 C 
HETATM    6  N3  UNL     1      27.050   2.575  53.849  1.00  0.00    -0.278 N 
HETATM    7  N4  UNL     1      27.782   1.569  54.536  1.00  0.00    -0.172 NA
HETATM    8  C9  UNL     1      27.105   0.466  54.454  1.00  0.00     0.231 C 
HETATM    9  N5  UNL     1      25.879   0.605  53.726  1.00  0.00    -0.317 N 
HETATM   10  C10 UNL     1      24.575   0.613  53.043  1.00  0.00     0.222 C 
HETATM   11  C14 UNL     1      24.660   2.119  53.222  1.00  0.00     0.319 C 
HETATM   12  H15 UNL     1      27.211   3.604  53.972  1.00  0.00     0.185 HD
ENDROOT
BRANCH   1  13
HETATM   13  C4  UNL     1      23.842   4.275  52.753  1.00  0.00     0.275 C 
BRANCH  13  14
HETATM   14  C3  UNL     1      22.726   5.009  52.031  1.00  0.00     0.065 C 
BRANCH  14  15
HETATM   15  C2  UNL     1      23.406   6.123  51.234  1.00  0.00     0.215 C 
HETATM   16  C1  UNL     1      22.330   7.076  50.798  1.00  0.00     0.042 C 
BRANCH  15  17
HETATM   17  N1  UNL     1      24.373   6.789  52.094  1.00  0.00     0.082 N 
HETATM   18  H5  UNL     1      24.836   6.133  52.763  1.00  0.00     0.313 HD
HETATM   19  H6  UNL     1      25.171   7.079  51.448  1.00  0.00     0.313 HD
ENDBRANCH  15  17
ENDBRANCH  14  15
ENDBRANCH  13  14
ENDBRANCH   1  13
BRANCH  10  20
HETATM   20  N6  UNL     1      23.488   0.086  53.773  1.00  0.00    -0.396 N 
HETATM   21  H18 UNL     1      23.112   0.619  54.554  1.00  0.00     0.155 HD
BRANCH  20  22
HETATM   22  C11 UNL     1      22.595  -0.790  53.141  1.00  0.00     0.070 C 
HETATM   23  C12 UNL     1      21.795  -0.008  52.117  1.00  0.00     0.031 C 
HETATM   24  C13 UNL     1      21.707  -1.621  53.994  1.00  0.00     0.031 C 
ENDBRANCH  20  22
ENDBRANCH  10  20
TORSDOF 6
ENDMDL
