ROOT
HETATM    1  C2  UNL     1      22.922   1.331  52.649  1.00  0.00     0.075 A 
HETATM    2  C3  UNL     1      24.294   1.462  52.638  1.00  0.00     0.055 A 
HETATM    3  C4  UNL     1      25.018   2.134  51.698  1.00  0.00     0.041 A 
HETATM    4  C5  UNL     1      26.387   2.269  51.682  1.00  0.00     0.142 A 
HETATM    5  N2  UNL     1      26.875   2.964  50.671  1.00  0.00    -0.224 NA
HETATM    6  C12 UNL     1      26.185   3.538  49.683  1.00  0.00     0.236 A 
HETATM    7  N3  UNL     1      24.854   3.395  49.716  1.00  0.00    -0.241 NA
HETATM    8  C13 UNL     1      24.259   2.707  50.701  1.00  0.00     0.072 A 
HETATM    9  C14 UNL     1      22.886   2.608  50.662  1.00  0.00     0.042 A 
HETATM   10  C15 UNL     1      22.192   1.917  51.635  1.00  0.00    -0.026 A 
HETATM   11  C16 UNL     1      20.711   1.851  51.528  1.00  0.00     0.051 C 
ENDROOT
BRANCH   4  12
HETATM   12  N1  UNL     1      27.139   1.669  52.722  1.00  0.00    -0.340 N 
HETATM   13  H5  UNL     1      27.463   2.210  53.545  1.00  0.00     0.167 HD
BRANCH  12  14
HETATM   14  C6  UNL     1      27.587   0.331  52.878  1.00  0.00     0.033 A 
HETATM   15  C7  UNL     1      26.897  -0.809  52.524  1.00  0.00     0.032 A 
HETATM   16  C8  UNL     1      27.374  -2.078  52.695  1.00  0.00     0.039 A 
HETATM   17  C9  UNL     1      28.613  -2.293  53.249  1.00  0.00     0.065 A 
HETATM   18  C10 UNL     1      29.338  -1.193  53.618  1.00  0.00     0.039 A 
HETATM   19  C11 UNL     1      28.822   0.068  53.429  1.00  0.00     0.032 A 
BRANCH  17  20
HETATM   20  O2  UNL     1      28.992  -3.616  53.374  1.00  0.00    -0.361 OA
HETATM   21  H8  UNL     1      28.389  -4.390  53.568  1.00  0.00     0.217 HD
ENDBRANCH  17  20
ENDBRANCH  12  14
ENDBRANCH   4  12
BRANCH   1  22
HETATM   22  O1  UNL     1      22.238   0.632  53.636  1.00  0.00    -0.355 OA
HETATM   23  C1  UNL     1      22.508  -0.655  54.081  1.00  0.00     0.210 C 
ENDBRANCH   1  22
TORSDOF 4
ENDMDL
