ROOT
HETATM    1  C5  UNL     1      24.339   2.373  50.511  1.00  0.00     0.151 C 
HETATM    2  C6  UNL     1      22.859   2.114  50.182  1.00  0.00     0.093 C 
HETATM    3  C7  UNL     1      22.420   1.297  51.273  1.00  0.00     0.057 C 
HETATM    4  N1  UNL     1      22.998   2.111  52.095  1.00  0.00    -0.174 NA
HETATM    5  N2  UNL     1      24.349   1.935  51.884  1.00  0.00    -0.236 N 
HETATM    6  C8  UNL     1      25.420   1.471  52.715  1.00  0.00     0.192 A 
HETATM    7  N3  UNL     1      25.249   0.439  53.357  1.00  0.00    -0.198 NA
HETATM    8  C9  UNL     1      26.203  -0.049  54.157  1.00  0.00     0.178 A 
HETATM    9  C10 UNL     1      27.454   0.665  54.254  1.00  0.00     0.111 A 
HETATM   10  S1  UNL     1      27.045   2.114  53.041  1.00  0.00    -0.058 SA
HETATM   11  O1  UNL     1      25.513  -1.164  54.609  1.00  0.00    -0.304 OA
HETATM   12  C11 UNL     1      24.275  -1.213  55.158  1.00  0.00     0.143 C 
HETATM   13  C12 UNL     1      22.979  -1.107  55.329  1.00  0.00     0.038 C 
HETATM   14  C13 UNL     1      21.714  -0.689  54.679  1.00  0.00     0.218 C 
HETATM   15  F2  UNL     1      21.012   0.223  55.489  1.00  0.00    -0.241 F 
HETATM   16  C14 UNL     1      21.872  -0.067  53.364  1.00  0.00     0.016 C 
HETATM   17  C15 UNL     1      21.860   0.311  52.133  1.00  0.00     0.028 C 
ENDROOT
BRANCH   1  18
HETATM   18  C4  UNL     1      24.625   3.806  50.456  1.00  0.00    -0.033 A 
HETATM   19  C3  UNL     1      23.955   4.755  51.189  1.00  0.00     0.012 A 
HETATM   20  C2  UNL     1      24.254   6.119  51.112  1.00  0.00     0.043 A 
HETATM   21  C1  UNL     1      25.278   6.492  50.249  1.00  0.00     0.116 A 
HETATM   22  F1  UNL     1      25.584   7.799  50.159  1.00  0.00    -0.206 F 
HETATM   23  C17 UNL     1      25.974   5.560  49.497  1.00  0.00     0.043 A 
HETATM   24  C16 UNL     1      25.630   4.226  49.618  1.00  0.00     0.012 A 
ENDBRANCH   1  18
TORSDOF 1
ENDMDL
