ROOT
HETATM    1  C6  UNL     1      26.583   5.278  48.918  1.00  0.00    -0.055 A 
HETATM    2  C7  UNL     1      26.817   3.986  49.342  1.00  0.00     0.010 A 
HETATM    3  C8  UNL     1      25.897   3.141  49.916  1.00  0.00     0.040 A 
HETATM    4  C9  UNL     1      24.615   3.671  50.072  1.00  0.00     0.102 A 
HETATM    5  C18 UNL     1      24.334   4.955  49.666  1.00  0.00     0.102 A 
HETATM    6  C20 UNL     1      25.290   5.784  49.088  1.00  0.00     0.046 A 
ENDROOT
BRANCH   1   7
HETATM    7  C5  UNL     1      27.690   6.055  48.313  1.00  0.00     0.045 C 
BRANCH   7   8
HETATM    8  C4  UNL     1      28.972   5.306  48.175  1.00  0.00     0.077 C 
BRANCH   8   9
HETATM    9  C3  UNL     1      30.128   6.101  48.648  1.00  0.00     0.097 C 
HETATM   10  N3  UNL     1      30.467   7.234  48.132  1.00  0.00    -0.056 NA
HETATM   11  C2  UNL     1      31.596   7.923  48.658  1.00  0.00     0.716 C 
HETATM   12  N1  UNL     1      32.532   8.199  47.797  1.00  0.00    -0.111 NA
HETATM   13  N2  UNL     1      31.417   8.152  50.054  1.00  0.00    -0.231 N 
HETATM   14  C1  UNL     1      32.479   7.855  46.401  1.00  0.00     0.198 C 
HETATM   15  H4  UNL     1      31.772   7.625  50.901  1.00  0.00     0.174 HD
HETATM   16  H5  UNL     1      30.849   8.958  50.447  1.00  0.00     0.174 HD
BRANCH   9  17
HETATM   17  N4  UNL     1      30.967   5.683  49.718  1.00  0.00    -0.290 NA
HETATM   18  H6  UNL     1      31.614   5.662  50.537  1.00  0.00     0.125 HD
HETATM   19  H7  UNL     1      31.524   6.233  50.413  1.00  0.00     0.125 HD
ENDBRANCH   9  17
ENDBRANCH   8   9
ENDBRANCH   7   8
ENDBRANCH   1   7
BRANCH   5  20
HETATM   20  O3  UNL     1      23.040   5.418  49.851  1.00  0.00    -0.353 OA
HETATM   21  C19 UNL     1      22.720   6.349  50.878  1.00  0.00     0.210 C 
ENDBRANCH   5  20
BRANCH   4  22
HETATM   22  O1  UNL     1      23.647   2.856  50.649  1.00  0.00    -0.344 OA
BRANCH  22  23
HETATM   23  C10 UNL     1      23.369   2.835  52.019  1.00  0.00     0.214 C 
BRANCH  23  24
HETATM   24  C11 UNL     1      24.282   1.897  52.723  1.00  0.00    -0.034 A 
HETATM   25  C12 UNL     1      25.358   2.396  53.429  1.00  0.00     0.012 A 
HETATM   26  C13 UNL     1      26.261   1.618  54.110  1.00  0.00     0.037 A 
HETATM   27  C14 UNL     1      26.103   0.250  54.101  1.00  0.00     0.068 A 
HETATM   28  C16 UNL     1      25.025  -0.300  53.398  1.00  0.00     0.037 A 
HETATM   29  C17 UNL     1      24.144   0.525  52.729  1.00  0.00     0.012 A 
BRANCH  27  30
HETATM   30  O2  UNL     1      27.052  -0.461  54.809  1.00  0.00    -0.356 OA
HETATM   31  C15 UNL     1      28.357   0.084  54.892  1.00  0.00     0.210 C 
ENDBRANCH  27  30
ENDBRANCH  23  24
ENDBRANCH  22  23
ENDBRANCH   4  22
TORSDOF 9
ENDMDL
