ROOT
HETATM    1  C5  UNL     1      21.477   3.808  51.652  1.00  0.00    -0.008 A 
HETATM    2  C6  UNL     1      20.888   4.995  51.158  1.00  0.00     0.030 A 
HETATM    3  C7  UNL     1      21.768   5.721  50.390  1.00  0.00     0.119 A 
HETATM    4  N3  UNL     1      22.891   4.994  50.409  1.00  0.00    -0.241 N 
HETATM    5  N4  UNL     1      24.029   5.188  49.806  1.00  0.00    -0.161 NA
HETATM    6  C8  UNL     1      25.029   4.341  49.887  1.00  0.00     0.256 A 
HETATM    7  N5  UNL     1      24.891   3.244  50.611  1.00  0.00    -0.237 NA
HETATM    8  C9  UNL     1      23.744   2.968  51.272  1.00  0.00     0.096 A 
HETATM    9  C22 UNL     1      22.736   3.887  51.141  1.00  0.00     0.095 A 
ENDROOT
BRANCH   8  10
HETATM   10  C10 UNL     1      23.767   1.740  52.029  1.00  0.00     0.001 C 
HETATM   11  C11 UNL     1      23.053   0.696  52.341  1.00  0.00     0.013 C 
HETATM   12  C12 UNL     1      23.142  -0.519  53.110  1.00  0.00     0.018 C 
HETATM   13  C13 UNL     1      24.303  -0.661  53.710  1.00  0.00     0.089 C 
HETATM   14  N6  UNL     1      25.222   0.386  53.491  1.00  0.00    -0.353 N 
HETATM   15  C14 UNL     1      25.131   1.509  52.624  1.00  0.00     0.162 C 
HETATM   16  C16 UNL     1      26.511   0.733  53.993  1.00  0.00     0.221 C 
HETATM   17  C15 UNL     1      25.612   2.693  53.335  1.00  0.00     0.116 C 
HETATM   18  N7  UNL     1      26.452   2.181  54.161  1.00  0.00    -0.276 NA
BRANCH  16  19
HETATM   19  C17 UNL     1      27.664   0.366  53.120  1.00  0.00     0.115 A 
HETATM   20  C18 UNL     1      27.665  -1.104  52.812  1.00  0.00    -0.011 A 
HETATM   21  C19 UNL     1      28.733  -1.697  53.321  1.00  0.00    -0.000 A 
HETATM   22  C20 UNL     1      29.562  -0.694  54.023  1.00  0.00     0.038 A 
HETATM   23  C21 UNL     1      28.931   0.468  53.891  1.00  0.00     0.105 A 
HETATM   24  F1  UNL     1      29.236   1.715  54.334  1.00  0.00    -0.210 F 
ENDBRANCH  16  19
ENDBRANCH   8  10
BRANCH   1  25
HETATM   25  C4  UNL     1      20.634   2.883  52.364  1.00  0.00     0.158 C 
BRANCH  25  26
HETATM   26  N2  UNL     1      19.568   2.395  51.526  1.00  0.00    -0.408 N 
HETATM   27  C3  UNL     1      18.249   2.778  51.818  1.00  0.00     0.119 C 
HETATM   28  C2  UNL     1      17.266   2.075  50.878  1.00  0.00     0.055 C 
HETATM   29  C1  UNL     1      17.378   0.578  50.942  1.00  0.00     0.221 C 
HETATM   30  C24 UNL     1      18.664   0.183  51.666  1.00  0.00     0.055 C 
HETATM   31  C23 UNL     1      19.755   1.045  51.068  1.00  0.00     0.119 C 
BRANCH  29  32
HETATM   32  N1  UNL     1      17.416   0.073  49.587  1.00  0.00     0.083 N 
HETATM   33  H1  UNL     1      16.518  -0.328  49.286  1.00  0.00     0.313 HD
HETATM   34  H2  UNL     1      18.188  -0.630  49.443  1.00  0.00     0.313 HD
ENDBRANCH  29  32
ENDBRANCH  25  26
ENDBRANCH   1  25
TORSDOF 5
ENDMDL
