ROOT
HETATM    1  C7  UNL     1      24.198  -0.352  53.805  1.00  0.00     0.158 A 
HETATM    2  N2  UNL     1      24.413  -1.129  54.898  1.00  0.00    -0.220 NA
HETATM    3  C8  UNL     1      23.326  -1.537  55.592  1.00  0.00     0.258 A 
HETATM    4  N3  UNL     1      22.081  -1.194  55.221  1.00  0.00    -0.161 NA
HETATM    5  N4  UNL     1      21.861  -0.427  54.143  1.00  0.00    -0.240 N 
HETATM    6  C9  UNL     1      20.764   0.050  53.533  1.00  0.00     0.119 A 
HETATM    7  C10 UNL     1      21.179   0.786  52.416  1.00  0.00     0.030 A 
HETATM    8  C11 UNL     1      22.587   0.749  52.361  1.00  0.00    -0.007 A 
HETATM    9  C18 UNL     1      22.915  -0.006  53.438  1.00  0.00     0.111 A 
ENDROOT
BRANCH   1  10
HETATM   10  N1  UNL     1      25.411  -0.002  53.123  1.00  0.00    -0.345 N 
HETATM   11  H7  UNL     1      25.728  -0.084  52.122  1.00  0.00     0.166 HD
BRANCH  10  12
HETATM   12  P1  UNL     1      26.735   0.700  54.120  1.00  0.00     0.014 P 
HETATM   13  H6  UNL     1      26.269   1.226  55.391  1.00  0.00     0.086 HD
BRANCH  12  14
HETATM   14  C5  UNL     1      27.622   2.001  53.170  1.00  0.00     0.030 C 
HETATM   15  C6  UNL     1      28.729   2.436  53.793  1.00  0.00     0.035 C 
BRANCH  14  16
HETATM   16  C4  UNL     1      27.175   2.491  51.907  1.00  0.00    -0.061 C 
HETATM   17  C3  UNL     1      26.811   2.904  50.835  1.00  0.00    -0.074 C 
BRANCH  17  18
HETATM   18  C2  UNL     1      26.392   3.414  49.540  1.00  0.00     0.054 C 
HETATM   19  C1  UNL     1      27.042   4.385  48.906  1.00  0.00     0.020 C 
ENDBRANCH  17  18
ENDBRANCH  14  16
ENDBRANCH  12  14
ENDBRANCH  10  12
ENDBRANCH   1  10
BRANCH   8  20
HETATM   20  C12 UNL     1      23.274   1.533  51.309  1.00  0.00     0.158 C 
BRANCH  20  21
HETATM   21  N5  UNL     1      23.087   2.896  51.453  1.00  0.00    -0.408 N 
HETATM   22  C13 UNL     1      22.179   3.660  50.702  1.00  0.00     0.119 C 
HETATM   23  C14 UNL     1      22.979   4.871  50.178  1.00  0.00     0.055 C 
HETATM   24  C15 UNL     1      23.440   5.694  51.332  1.00  0.00     0.221 C 
HETATM   25  C16 UNL     1      23.193   5.010  52.645  1.00  0.00     0.055 C 
HETATM   26  C17 UNL     1      23.555   3.536  52.645  1.00  0.00     0.119 C 
BRANCH  24  27
HETATM   27  N6  UNL     1      24.844   6.022  51.143  1.00  0.00     0.083 N 
HETATM   28  H18 UNL     1      25.414   5.847  52.005  1.00  0.00     0.313 HD
HETATM   29  H19 UNL     1      25.236   5.562  50.301  1.00  0.00     0.313 HD
ENDBRANCH  24  27
ENDBRANCH  20  21
ENDBRANCH   8  20
TORSDOF 8
ENDMDL
