ROOT
HETATM    1  C1  UNL     1      28.249   2.407  53.715  1.00  0.00     0.038 C 
HETATM    2  C2  UNL     1      27.543   1.333  53.532  1.00  0.00     0.018 C 
HETATM    3  C3  UNL     1      27.985  -0.048  53.230  1.00  0.00     0.056 A 
HETATM    4  C4  UNL     1      29.301  -0.555  53.331  1.00  0.00     0.136 A 
HETATM    5  N2  UNL     1      29.588  -1.894  53.267  1.00  0.00    -0.224 NA
HETATM    6  C5  UNL     1      28.537  -2.752  53.099  1.00  0.00     0.235 A 
HETATM    7  N3  UNL     1      27.239  -2.310  52.990  1.00  0.00    -0.244 NA
HETATM    8  C6  UNL     1      27.001  -0.988  53.052  1.00  0.00     0.071 A 
HETATM    9  C7  UNL     1      25.803  -0.196  52.718  1.00  0.00     0.135 A 
HETATM   10  C8  UNL     1      24.819   0.490  53.391  1.00  0.00     0.090 A 
HETATM   11  N6  UNL     1      26.162   1.025  53.533  1.00  0.00    -0.265 NA
ENDROOT
BRANCH  10  12
HETATM   12  C9  UNL     1      23.851   1.368  52.640  1.00  0.00     0.041 C 
BRANCH  12  13
HETATM   13  C10 UNL     1      24.169   2.817  52.913  1.00  0.00     0.118 C 
BRANCH  13  14
HETATM   14  N4  UNL     1      24.223   3.655  51.769  1.00  0.00    -0.409 N 
HETATM   15  C11 UNL     1      24.448   3.030  50.511  1.00  0.00     0.136 C 
HETATM   16  C12 UNL     1      24.291   4.125  49.446  1.00  0.00     0.145 C 
HETATM   17  N5  UNL     1      24.707   5.426  49.991  1.00  0.00    -0.349 N 
HETATM   18  C13 UNL     1      25.813   6.289  49.706  1.00  0.00     0.215 C 
HETATM   19  C15 UNL     1      23.798   5.928  51.035  1.00  0.00     0.145 C 
HETATM   20  C14 UNL     1      26.824   5.941  48.685  1.00  0.00     0.117 C 
HETATM   21  O1  UNL     1      26.132   7.418  50.212  1.00  0.00    -0.274 OA
HETATM   22  C16 UNL     1      23.207   4.685  51.713  1.00  0.00     0.136 C 
ENDBRANCH  13  14
ENDBRANCH  12  13
ENDBRANCH  10  12
BRANCH   4  23
HETATM   23  N1  UNL     1      30.464   0.245  53.508  1.00  0.00    -0.383 N 
HETATM   24  H3  UNL     1      31.350  -0.226  53.699  1.00  0.00     0.157 HD
HETATM   25  H4  UNL     1      30.477   1.301  53.456  1.00  0.00     0.157 HD
ENDBRANCH   4  23
TORSDOF 4
ENDMDL
