ROOT
HETATM    1  C1  UNL     1      20.548   0.233  54.071  1.00  0.00     0.143 C 
HETATM    2  N1  UNL     1      21.322   0.313  52.952  1.00  0.00    -0.416 N 
HETATM    3  C2  UNL     1      21.076   1.119  51.861  1.00  0.00     0.118 C 
HETATM    4  C3  UNL     1      21.342   2.572  52.160  1.00  0.00     0.055 C 
HETATM    5  C4  UNL     1      21.586   3.239  50.834  1.00  0.00     0.223 C 
HETATM    6  C5  UNL     1      22.677   2.567  50.027  1.00  0.00     0.072 C 
HETATM    7  C6  UNL     1      23.999   2.483  50.631  1.00  0.00    -0.042 A 
HETATM    8  C7  UNL     1      24.827   3.313  49.977  1.00  0.00     0.113 A 
HETATM    9  N3  UNL     1      26.172   3.500  50.270  1.00  0.00    -0.287 N 
HETATM   10  N4  UNL     1      26.838   2.857  51.273  1.00  0.00    -0.160 NA
HETATM   11  C8  UNL     1      26.123   2.022  51.975  1.00  0.00     0.147 A 
HETATM   12  C9  UNL     1      24.585   1.729  51.732  1.00  0.00     0.080 A 
HETATM   13  C10 UNL     1      23.392   1.040  52.152  1.00  0.00     0.030 A 
HETATM   14  C11 UNL     1      24.394   0.726  52.875  1.00  0.00     0.064 A 
HETATM   15  C12 UNL     1      25.257   0.473  53.475  1.00  0.00    -0.112 A 
HETATM   16  C13 UNL     1      26.294   0.191  54.171  1.00  0.00     0.079 A 
HETATM   17  C14 UNL     1      27.257  -0.142  54.897  1.00  0.00     0.015 A 
HETATM   18  C15 UNL     1      28.672   0.283  54.958  1.00  0.00     0.058 A 
HETATM   19  C16 UNL     1      28.995   1.272  53.921  1.00  0.00    -0.005 A 
HETATM   20  C17 UNL     1      28.214   1.828  52.985  1.00  0.00     0.095 A 
HETATM   21  N5  UNL     1      26.823   1.270  53.121  1.00  0.00    -0.302 N 
HETATM   22  C18 UNL     1      22.798   0.193  53.180  1.00  0.00     0.135 A 
HETATM   23  H14 UNL     1      26.889   4.098  49.844  1.00  0.00     0.188 HD
ENDROOT
BRANCH   5  24
HETATM   24  N2  UNL     1      21.831   4.637  51.028  1.00  0.00     0.083 N 
HETATM   25  H9  UNL     1      22.796   4.807  51.413  1.00  0.00     0.313 HD
HETATM   26  H10 UNL     1      21.100   5.136  51.578  1.00  0.00     0.313 HD
ENDBRANCH   5  24
TORSDOF 1
ENDMDL
