ROOT
HETATM    1  C2  UNL     1      27.400  -0.628  53.750  1.00  0.00     0.090 C 
HETATM    2  C3  UNL     1      28.726  -0.423  53.677  1.00  0.00     0.097 C 
HETATM    3  C4  UNL     1      29.492   0.796  54.010  1.00  0.00     0.063 C 
HETATM    4  C5  UNL     1      28.965   2.032  54.064  1.00  0.00     0.138 C 
HETATM    5  O3  UNL     1      27.647   2.416  53.830  1.00  0.00    -0.350 OA
HETATM    6  C6  UNL     1      26.543   1.623  53.358  1.00  0.00     0.203 C 
HETATM    7  C8  UNL     1      26.436   0.408  54.209  1.00  0.00     0.114 C 
ENDROOT
BRANCH   7   8
HETATM    8  C9  UNL     1      25.109  -0.186  54.326  1.00  0.00    -0.044 A 
HETATM    9  C10 UNL     1      24.781  -0.821  55.511  1.00  0.00     0.011 A 
HETATM   10  C11 UNL     1      23.538  -1.424  55.735  1.00  0.00     0.037 A 
HETATM   11  C12 UNL     1      22.582  -1.394  54.741  1.00  0.00     0.068 A 
HETATM   12  C14 UNL     1      22.872  -0.766  53.540  1.00  0.00     0.037 A 
HETATM   13  C15 UNL     1      24.114  -0.191  53.380  1.00  0.00     0.011 A 
BRANCH  11  14
HETATM   14  O5  UNL     1      21.314  -1.952  54.838  1.00  0.00    -0.356 OA
HETATM   15  C13 UNL     1      20.289  -1.443  54.037  1.00  0.00     0.210 C 
ENDBRANCH  11  14
ENDBRANCH   7   8
BRANCH   1  16
HETATM   16  O1  UNL     1      26.853  -1.846  53.393  1.00  0.00    -0.357 OA
HETATM   17  C1  UNL     1      26.811  -2.265  52.056  1.00  0.00     0.209 C 
ENDBRANCH   1  16
BRANCH   6  18
HETATM   18  C7  UNL     1      25.346   2.507  53.417  1.00  0.00     0.264 C 
HETATM   19  O4  UNL     1      25.053   2.926  52.303  1.00  0.00    -0.304 OA
ENDBRANCH   6  18
BRANCH   2  20
HETATM   20  O2  UNL     1      29.593  -1.434  53.239  1.00  0.00    -0.358 OA
HETATM   21  H4  UNL     1      29.773  -2.178  53.891  1.00  0.00     0.217 HD
ENDBRANCH   2  20
TORSDOF 5
ENDMDL
