ROOT
HETATM    1 CL1  UNL     1      21.708  -2.037  54.274  1.00  0.00    -0.089 Cl
HETATM    2  C1  UNL     1      22.502  -0.632  53.555  1.00  0.00     0.011 C 
HETATM    3  C2  UNL     1      21.860  -0.230  52.438  1.00  0.00     0.018 C 
HETATM    4  C3  UNL     1      22.190   0.911  51.525  1.00  0.00     0.197 C 
HETATM    5  O1  UNL     1      23.000   1.863  52.148  1.00  0.00    -0.380 OA
HETATM    6  C4  UNL     1      24.338   1.501  52.066  1.00  0.00     0.151 C 
HETATM    7  C5  UNL     1      25.203   2.713  52.216  1.00  0.00     0.147 C 
HETATM    8  N1  UNL     1      26.551   2.731  52.070  1.00  0.00    -0.415 N 
HETATM    9  C6  UNL     1      27.559   2.252  52.847  1.00  0.00     0.149 C 
HETATM   10  C7  UNL     1      27.709   0.759  52.915  1.00  0.00    -0.045 C 
HETATM   11  C8  UNL     1      28.782   0.465  53.679  1.00  0.00     0.024 C 
HETATM   12  C9  UNL     1      29.281  -0.879  54.031  1.00  0.00     0.114 C 
HETATM   13  N2  UNL     1      28.490  -1.712  53.506  1.00  0.00    -0.269 NA
HETATM   14  C10 UNL     1      27.357  -1.665  52.753  1.00  0.00     0.261 C 
HETATM   15  O2  UNL     1      26.188  -1.282  53.764  1.00  0.00    -0.350 OA
HETATM   16  C11 UNL     1      25.774  -0.149  52.790  1.00  0.00     0.097 A 
HETATM   17  C12 UNL     1      24.645   0.436  53.013  1.00  0.00     0.038 C 
HETATM   18  C13 UNL     1      23.736   0.043  54.106  1.00  0.00     0.067 C 
HETATM   19  C14 UNL     1      26.392   0.545  51.510  1.00  0.00     0.051 A 
HETATM   20  C15 UNL     1      26.934  -0.348  52.149  1.00  0.00     0.070 A 
HETATM   21  H7  UNL     1      26.948   3.213  51.211  1.00  0.00     0.153 HD
ENDROOT
TORSDOF 0
ENDMDL
