ROOT
HETATM    1  C4  UNL     1      23.949   3.253  50.062  1.00  0.00     0.069 A 
HETATM    2  C5  UNL     1      23.985   2.531  51.216  1.00  0.00     0.048 A 
HETATM    3  C6  UNL     1      23.073   1.564  51.582  1.00  0.00     0.023 A 
HETATM    4  C7  UNL     1      23.175   0.871  52.772  1.00  0.00     0.067 A 
HETATM    5  C14 UNL     1      22.198  -0.072  53.023  1.00  0.00     0.089 A 
HETATM    6  C15 UNL     1      22.231  -0.846  54.252  1.00  0.00     0.103 C 
HETATM    7  N3  UNL     1      22.274  -1.466  55.229  1.00  0.00    -0.191 NA
HETATM    8  C16 UNL     1      21.157  -0.344  52.168  1.00  0.00     0.142 A 
HETATM    9  N4  UNL     1      21.092   0.361  51.006  1.00  0.00    -0.259 NA
HETATM   10  C17 UNL     1      22.022   1.278  50.735  1.00  0.00     0.071 A 
HETATM   11  C18 UNL     1      21.950   1.989  49.556  1.00  0.00     0.071 A 
HETATM   12  C19 UNL     1      22.891   2.945  49.240  1.00  0.00     0.097 A 
ENDROOT
BRANCH   4  13
HETATM   13  N2  UNL     1      24.220   1.123  53.664  1.00  0.00    -0.354 N 
HETATM   14  H6  UNL     1      24.041   1.741  54.485  1.00  0.00     0.166 HD
BRANCH  13  15
HETATM   15  C8  UNL     1      25.498   0.569  53.488  1.00  0.00     0.033 A 
HETATM   16  C9  UNL     1      25.685  -0.690  52.953  1.00  0.00     0.029 A 
HETATM   17  C10 UNL     1      26.964  -1.191  52.799  1.00  0.00     0.004 A 
HETATM   18  C11 UNL     1      28.087  -0.475  53.163  1.00  0.00     0.019 A 
HETATM   19  C12 UNL     1      27.938   0.802  53.709  1.00  0.00     0.013 A 
HETATM   20 BR1  UNL     1      29.421   1.881  54.248  1.00  0.00    -0.051 Br
HETATM   21  C13 UNL     1      26.643   1.266  53.845  1.00  0.00     0.048 A 
ENDBRANCH  13  15
ENDBRANCH   4  13
BRANCH   1  22
HETATM   22  N1  UNL     1      24.868   4.249  49.659  1.00  0.00    -0.321 N 
HETATM   23  C3  UNL     1      26.205   4.138  49.282  1.00  0.00     0.242 C 
HETATM   24  O1  UNL     1      26.740   3.011  49.278  1.00  0.00    -0.269 OA
HETATM   25  H4  UNL     1      24.528   5.250  49.622  1.00  0.00     0.169 HD
BRANCH  23  26
HETATM   26  C2  UNL     1      27.031   5.266  48.887  1.00  0.00     0.048 C 
HETATM   27  C1  UNL     1      28.268   5.154  48.429  1.00  0.00     0.037 C 
ENDBRANCH  23  26
ENDBRANCH   1  22
BRANCH  12  28
HETATM   28  O2  UNL     1      22.739   3.619  48.022  1.00  0.00    -0.354 OA
HETATM   29  C20 UNL     1      21.998   3.070  46.946  1.00  0.00     0.210 C 
ENDBRANCH  12  28
TORSDOF 5
ENDMDL
