ROOT
HETATM    1  C7  UNL     1      24.647   3.418  50.518  1.00  0.00     0.009 A 
HETATM    2  C8  UNL     1      23.268   3.523  50.504  1.00  0.00     0.155 A 
HETATM    3  O2  UNL     1      22.797   2.538  51.224  1.00  0.00    -0.321 OA
HETATM    4  C9  UNL     1      23.755   1.797  51.707  1.00  0.00     0.086 A 
HETATM    5  C10 UNL     1      23.771   0.671  52.503  1.00  0.00     0.039 A 
HETATM    6  C11 UNL     1      24.954   0.068  52.878  1.00  0.00     0.017 A 
HETATM    7  C12 UNL     1      26.186   0.569  52.469  1.00  0.00    -0.002 A 
HETATM    8  C18 UNL     1      26.130   1.690  51.676  1.00  0.00     0.029 A 
HETATM    9  C19 UNL     1      24.962   2.315  51.284  1.00  0.00     0.012 A 
ENDROOT
BRANCH   1  10
HETATM   10  C6  UNL     1      25.603   4.295  49.852  1.00  0.00    -0.023 A 
HETATM   11  C5  UNL     1      26.792   3.922  49.261  1.00  0.00     0.014 A 
HETATM   12  C4  UNL     1      27.617   4.849  48.661  1.00  0.00     0.022 A 
HETATM   13  C3  UNL     1      27.275   6.188  48.634  1.00  0.00     0.031 A 
HETATM   14  C21 UNL     1      26.086   6.569  49.225  1.00  0.00     0.022 A 
HETATM   15  C20 UNL     1      25.251   5.647  49.830  1.00  0.00     0.014 A 
BRANCH  13  16
HETATM   16  S1  UNL     1      28.422   7.260  47.834  1.00  0.00     0.049 S 
HETATM   17  O1  UNL     1      29.649   6.496  47.355  1.00  0.00    -0.253 OA
BRANCH  16  18
HETATM   18  C2  UNL     1      28.891   8.651  48.848  1.00  0.00     0.109 C 
HETATM   19  C1  UNL     1      30.402   8.660  48.991  1.00  0.00     0.019 C 
ENDBRANCH  16  18
ENDBRANCH  13  16
ENDBRANCH   1  10
BRANCH   7  20
HETATM   20  C13 UNL     1      27.432  -0.075  52.869  1.00  0.00     0.079 A 
HETATM   21  C14 UNL     1      27.648  -1.381  52.859  1.00  0.00     0.037 A 
HETATM   22  C15 UNL     1      28.913  -1.989  53.268  1.00  0.00     0.001 A 
HETATM   23  C16 UNL     1      29.885  -1.217  53.664  1.00  0.00    -0.000 A 
HETATM   24  C17 UNL     1      29.729   0.257  53.706  1.00  0.00     0.203 A 
HETATM   25  O3  UNL     1      28.479   0.719  53.294  1.00  0.00    -0.347 OA
ENDBRANCH   7  20
TORSDOF 4
ENDMDL
