ROOT
HETATM    1  C3  UNL     1      21.468   1.110  52.637  1.00  0.00     0.166 C 
HETATM    2  C4  UNL     1      20.889   2.443  52.481  1.00  0.00     0.011 C 
HETATM    3  C5  UNL     1      21.455   3.600  52.213  1.00  0.00     0.035 C 
HETATM    4  C6  UNL     1      22.870   3.870  51.992  1.00  0.00     0.112 C 
HETATM    5  N1  UNL     1      23.937   3.344  52.557  1.00  0.00    -0.170 NA
HETATM    6  N2  UNL     1      24.981   2.699  51.830  1.00  0.00    -0.277 N 
HETATM    7  C7  UNL     1      25.594   3.346  50.688  1.00  0.00     0.144 C 
HETATM    8  C8  UNL     1      25.310   4.490  50.086  1.00  0.00     0.085 C 
HETATM    9  N3  UNL     1      24.027   5.111  50.125  1.00  0.00    -0.238 NA
HETATM   10  C15 UNL     1      23.059   4.905  50.950  1.00  0.00     0.121 C 
HETATM   11  C16 UNL     1      25.649   1.423  51.960  1.00  0.00     0.164 C 
HETATM   12  C17 UNL     1      25.017   0.476  52.916  1.00  0.00     0.028 A 
HETATM   13  C18 UNL     1      23.570   0.666  53.185  1.00  0.00     0.183 C 
HETATM   14  O1  UNL     1      22.779   0.998  52.116  1.00  0.00    -0.377 OA
HETATM   15  C19 UNL     1      25.809   0.091  54.177  1.00  0.00     0.048 A 
HETATM   16  C20 UNL     1      25.584  -0.893  53.038  1.00  0.00     0.134 A 
ENDROOT
BRANCH   8  17
HETATM   17  C9  UNL     1      26.319   5.216  49.322  1.00  0.00    -0.006 A 
HETATM   18  C10 UNL     1      27.543   4.733  48.932  1.00  0.00     0.015 A 
HETATM   19  C11 UNL     1      28.477   5.441  48.208  1.00  0.00     0.024 A 
HETATM   20  C12 UNL     1      28.186   6.736  47.833  1.00  0.00     0.034 A 
HETATM   21 CL1  UNL     1      29.388   7.617  46.911  1.00  0.00    -0.084 Cl
HETATM   22  C13 UNL     1      26.965   7.257  48.205  1.00  0.00     0.024 A 
HETATM   23  C14 UNL     1      26.062   6.509  48.930  1.00  0.00     0.015 A 
ENDBRANCH   8  17
BRANCH  10  24
HETATM   24  S1  UNL     1      21.686   6.073  50.829  1.00  0.00    -0.121 SA
HETATM   25  H12 UNL     1      21.340   6.494  52.124  1.00  0.00     0.108 HD
ENDBRANCH  10  24
BRANCH  16  26
HETATM   26  O2  UNL     1      26.731  -1.256  52.373  1.00  0.00    -0.390 OA
HETATM   27  C21 UNL     1      27.872  -1.148  53.165  1.00  0.00     0.202 C 
ENDBRANCH  16  26
BRANCH   1  28
HETATM   28  C2  UNL     1      20.571   0.108  52.018  1.00  0.00    -0.002 C 
HETATM   29  C1  UNL     1      19.469  -0.143  52.704  1.00  0.00     0.010 C 
ENDBRANCH   1  28
TORSDOF 4
ENDMDL
