ROOT
HETATM    1  C7  UNL     1      26.517   4.127  49.545  1.00  0.00     0.052 A 
HETATM    2  N2  UNL     1      27.630   4.323  48.913  1.00  0.00    -0.070 NA
HETATM    3  C8  UNL     1      27.786   5.657  48.485  1.00  0.00     0.722 A 
HETATM    4  N6  UNL     1      26.768   6.342  48.838  1.00  0.00    -0.100 NA
HETATM    5  C13 UNL     1      25.864   5.453  49.541  1.00  0.00     0.224 A 
ENDROOT
BRANCH   1   6
HETATM    6  C6  UNL     1      26.283   2.745  50.027  1.00  0.00     0.066 C 
BRANCH   6   7
HETATM    7  C5  UNL     1      26.613   2.503  51.455  1.00  0.00     0.040 C 
HETATM    8  C4  UNL     1      26.980   1.015  51.609  1.00  0.00     0.133 C 
HETATM    9  N1  UNL     1      26.869   0.904  53.077  1.00  0.00    -0.346 N 
HETATM   10  C3  UNL     1      27.569  -0.053  53.883  1.00  0.00     0.239 C 
HETATM   11  C16 UNL     1      25.944   1.906  53.592  1.00  0.00     0.158 C 
HETATM   12  O1  UNL     1      27.465  -0.137  55.139  1.00  0.00    -0.269 OA
HETATM   13  C14 UNL     1      25.333   2.476  52.301  1.00  0.00     0.144 C 
BRANCH  10  14
HETATM   14  C2  UNL     1      28.467  -1.006  53.264  1.00  0.00     0.048 C 
HETATM   15  C1  UNL     1      29.733  -0.791  53.570  1.00  0.00     0.037 C 
ENDBRANCH  10  14
BRANCH  13  16
HETATM   16  O2  UNL     1      24.473   1.574  51.738  1.00  0.00    -0.389 OA
HETATM   17  C15 UNL     1      23.294   1.341  52.382  1.00  0.00     0.202 C 
ENDBRANCH  13  16
ENDBRANCH   6   7
ENDBRANCH   1   6
BRANCH   3  18
HETATM   18  N3  UNL     1      28.901   6.186  47.766  1.00  0.00    -0.186 N 
HETATM   19  H9  UNL     1      28.752   6.859  46.982  1.00  0.00     0.184 HD
BRANCH  18  20
HETATM   20  C9  UNL     1      30.223   5.797  48.115  1.00  0.00     0.085 A 
HETATM   21  C10 UNL     1      31.017   6.329  49.103  1.00  0.00     0.170 A 
HETATM   22  N4  UNL     1      32.192   5.640  49.064  1.00  0.00    -0.183 NA
HETATM   23  N5  UNL     1      32.173   4.728  48.122  1.00  0.00    -0.283 N 
HETATM   24  C11 UNL     1      33.247   3.800  47.780  1.00  0.00     0.179 C 
HETATM   25  C12 UNL     1      30.967   4.805  47.521  1.00  0.00     0.143 A 
ENDBRANCH  18  20
ENDBRANCH   3  18
TORSDOF 6
ENDMDL
