ROOT
HETATM    1  C1  UNL     1      20.796  -1.058  53.826  1.00  0.00     0.045 C 
HETATM    2  C2  UNL     1      22.045  -0.841  54.209  1.00  0.00     0.049 C 
HETATM    3  C3  UNL     1      22.850  -0.011  53.319  1.00  0.00     0.043 C 
HETATM    4  C4  UNL     1      24.159   0.193  53.281  1.00  0.00     0.008 C 
HETATM    5  C12 UNL     1      25.135  -0.410  54.182  1.00  0.00     0.143 C 
HETATM    6  N4  UNL     1      24.916  -1.117  55.242  1.00  0.00    -0.223 NA
HETATM    7  C18 UNL     1      23.715  -1.542  55.879  1.00  0.00     0.235 C 
HETATM    8  N5  UNL     1      22.496  -1.418  55.429  1.00  0.00    -0.243 NA
ENDROOT
BRANCH   4   9
HETATM    9  C5  UNL     1      24.787   1.077  52.295  1.00  0.00     0.166 C 
BRANCH   9  10
HETATM   10  N1  UNL     1      24.471   2.475  52.472  1.00  0.00    -0.346 N 
HETATM   11  C6  UNL     1      24.074   3.096  51.270  1.00  0.00     0.296 C 
HETATM   12  O1  UNL     1      24.023   2.430  50.179  1.00  0.00    -0.258 OA
HETATM   13  H6  UNL     1      24.487   3.088  53.325  1.00  0.00     0.163 HD
BRANCH  11  14
HETATM   14  C7  UNL     1      23.707   4.481  51.177  1.00  0.00    -0.004 C 
HETATM   15  C8  UNL     1      23.411   5.647  51.085  1.00  0.00    -0.066 C 
BRANCH  15  16
HETATM   16  C9  UNL     1      23.075   7.050  50.976  1.00  0.00     0.363 C 
BRANCH  16  17
HETATM   17  N2  UNL     1      24.151   7.936  51.377  1.00  0.00     0.093 N 
HETATM   18  H9  UNL     1      23.831   8.784  51.884  1.00  0.00     0.316 HD
BRANCH  17  19
HETATM   19  C10 UNL     1      24.783   8.381  50.140  1.00  0.00     0.266 C 
HETATM   20  C11 UNL     1      26.239   7.913  50.100  1.00  0.00     0.037 C 
ENDBRANCH  17  19
ENDBRANCH  16  17
ENDBRANCH  15  16
ENDBRANCH  11  14
ENDBRANCH   9  10
ENDBRANCH   4   9
BRANCH   5  21
HETATM   21  N3  UNL     1      26.536  -0.280  53.985  1.00  0.00    -0.316 N 
HETATM   22  C13 UNL     1      27.080  -1.416  53.291  1.00  0.00     0.094 A 
HETATM   23  C14 UNL     1      28.394  -1.414  53.046  1.00  0.00    -0.004 A 
HETATM   24  C15 UNL     1      29.375  -0.361  53.410  1.00  0.00     0.081 A 
HETATM   25  C16 UNL     1      28.661   0.732  54.113  1.00  0.00     0.031 A 
HETATM   26 CL1  UNL     1      29.697   2.052  54.607  1.00  0.00    -0.087 Cl
HETATM   27  C17 UNL     1      27.370   0.777  54.379  1.00  0.00     0.117 A 
ENDBRANCH   5  21
TORSDOF 7
ENDMDL
