ROOT
HETATM    1  N1  UNL     1      25.173   5.065  50.224  1.00  0.00    -0.366 N 
HETATM    2  C3  UNL     1      24.368   6.232  50.610  1.00  0.00     0.106 A 
HETATM    3  N2  UNL     1      23.097   6.394  50.760  1.00  0.00     0.000 N 
HETATM    4  C4  UNL     1      22.495   7.636  50.552  1.00  0.00     0.092 A 
HETATM    5  N3  UNL     1      21.567   6.691  50.907  1.00  0.00    -0.205 NA
HETATM    6  C5  UNL     1      21.923   5.396  51.168  1.00  0.00     0.076 A 
HETATM    7  C6  UNL     1      20.864   4.720  51.613  1.00  0.00     0.044 A 
HETATM    8  C7  UNL     1      21.374   3.581  52.146  1.00  0.00     0.134 A 
HETATM    9  C8  UNL     1      22.668   3.228  52.232  1.00  0.00     0.089 A 
HETATM   10  C10 UNL     1      23.158   4.283  51.627  1.00  0.00     0.089 A 
HETATM   11  C11 UNL     1      23.232   5.569  50.938  1.00  0.00     0.043 A 
HETATM   12  O2  UNL     1      20.543   2.521  52.672  1.00  0.00    -0.196 OA
HETATM   13  O3  UNL     1      20.201   1.706  51.551  1.00  0.00    -0.235 OA
HETATM   14  C12 UNL     1      21.137   0.758  51.314  1.00  0.00     0.212 C 
HETATM   15  C13 UNL     1      21.604   0.636  49.903  1.00  0.00     0.050 C 
HETATM   16  C14 UNL     1      22.064   1.921  49.229  1.00  0.00     0.016 A 
HETATM   17  C15 UNL     1      21.369   2.236  48.059  1.00  0.00     0.031 A 
HETATM   18  C16 UNL     1      22.238   2.893  48.526  1.00  0.00     0.029 A 
HETATM   19  S1  UNL     1      23.174   3.583  49.047  1.00  0.00    -0.201 SA
HETATM   20  C17 UNL     1      23.178   3.585  49.047  1.00  0.00     0.094 A 
HETATM   21  H17 UNL     1      24.158   4.323  49.568  1.00  0.00     0.094 HD
ENDROOT
BRANCH   1  22
HETATM   22  C2  UNL     1      26.103   4.016  49.919  1.00  0.00     0.124 C 
HETATM   23  C1  UNL     1      27.209   4.323  49.013  1.00  0.00     0.027 C 
ENDBRANCH   1  22
BRANCH   9  24
HETATM   24  O1  UNL     1      23.236   2.142  52.779  1.00  0.00    -0.357 OA
HETATM   25  C9  UNL     1      24.454   1.534  52.672  1.00  0.00     0.209 C 
ENDBRANCH   9  24
TORSDOF 2
ENDMDL
