ROOT
HETATM    1  C4  UNL     1      25.611   0.825  53.287  1.00  0.00     0.020 C 
HETATM    2  C5  UNL     1      26.129   1.675  52.375  1.00  0.00     0.047 C 
HETATM    3  C6  UNL     1      25.429   2.313  51.204  1.00  0.00    -0.007 C 
HETATM    4  C7  UNL     1      24.597   2.767  50.220  1.00  0.00     0.064 C 
HETATM    5  C8  UNL     1      23.371   2.934  49.433  1.00  0.00     0.089 C 
HETATM    6  N2  UNL     1      22.218   2.351  49.676  1.00  0.00    -0.302 NA
HETATM    7  C9  UNL     1      21.088   2.608  48.815  1.00  0.00     0.176 C 
HETATM    8  C10 UNL     1      19.869   1.916  49.237  1.00  0.00     0.005 C 
HETATM    9  C11 UNL     1      19.241   1.082  50.116  1.00  0.00    -0.024 A 
HETATM   10  C12 UNL     1      17.825   0.542  50.244  1.00  0.00     0.071 A 
HETATM   11  C13 UNL     1      18.418  -0.125  51.393  1.00  0.00     0.015 A 
HETATM   12  C14 UNL     1      19.674   0.352  51.290  1.00  0.00     0.072 A 
HETATM   13  O2  UNL     1      20.827   0.166  52.035  1.00  0.00    -0.346 OA
HETATM   14  C15 UNL     1      20.806  -0.092  53.427  1.00  0.00     0.214 C 
HETATM   15  C16 UNL     1      22.168  -0.327  53.887  1.00  0.00    -0.033 A 
HETATM   16  C17 UNL     1      22.440  -1.237  54.874  1.00  0.00     0.009 A 
HETATM   17  C18 UNL     1      23.717  -1.499  55.359  1.00  0.00     0.002 A 
HETATM   18  C19 UNL     1      24.844  -0.868  54.892  1.00  0.00     0.013 A 
HETATM   19  C20 UNL     1      24.557   0.020  53.924  1.00  0.00    -0.013 A 
HETATM   20  C21 UNL     1      23.306   0.288  53.439  1.00  0.00     0.022 A 
ENDROOT
BRANCH   1  21
HETATM   21  N1  UNL     1      26.902   0.768  53.927  1.00  0.00    -0.385 N 
HETATM   22  H6  UNL     1      27.054   1.098  54.929  1.00  0.00     0.160 HD
BRANCH  21  23
HETATM   23  C2  UNL     1      28.064   0.246  53.223  1.00  0.00     0.111 C 
HETATM   24  C1  UNL     1      29.374   0.616  53.864  1.00  0.00     0.035 C 
BRANCH  23  25
HETATM   25  C3  UNL     1      28.005  -1.235  53.110  1.00  0.00     0.415 C 
HETATM   26  O1  UNL     1      28.664  -2.183  53.473  1.00  0.00    -0.428 OA
ENDBRANCH  23  25
ENDBRANCH  21  23
ENDBRANCH   1  21
TORSDOF 3
ENDMDL
