ROOT
HETATM    1  C9  UNL     1      26.618   2.064  51.334  1.00  0.00     0.124 A 
HETATM    2  C10 UNL     1      25.763   1.142  51.907  1.00  0.00     0.068 A 
HETATM    3  C11 UNL     1      25.890   0.627  53.179  1.00  0.00     0.044 A 
HETATM    4  C12 UNL     1      25.034  -0.284  53.729  1.00  0.00     0.142 A 
HETATM    5  N4  UNL     1      25.377  -0.616  54.965  1.00  0.00    -0.224 NA
HETATM    6  C19 UNL     1      26.418  -0.171  55.674  1.00  0.00     0.236 A 
HETATM    7  N5  UNL     1      27.245   0.725  55.109  1.00  0.00    -0.240 NA
HETATM    8  C20 UNL     1      26.982   1.130  53.849  1.00  0.00     0.089 A 
HETATM    9  C21 UNL     1      27.866   2.045  53.336  1.00  0.00     0.151 A 
HETATM   10  N6  UNL     1      27.649   2.482  52.086  1.00  0.00    -0.241 NA
ENDROOT
BRANCH   1  11
HETATM   11  N2  UNL     1      26.408   2.549  50.009  1.00  0.00    -0.370 N 
HETATM   12  H17 UNL     1      26.482   1.859  49.223  1.00  0.00     0.161 HD
BRANCH  11  13
HETATM   13  C2  UNL     1      26.099   3.974  49.782  1.00  0.00     0.080 C 
HETATM   14  C1  UNL     1      27.167   4.620  48.958  1.00  0.00     0.032 C 
BRANCH  13  15
HETATM   15  C3  UNL     1      24.739   4.059  49.254  1.00  0.00     0.055 C 
BRANCH  15  16
HETATM   16  C4  UNL     1      23.555   4.018  50.144  1.00  0.00     0.274 C 
BRANCH  16  17
HETATM   17  N1  UNL     1      23.693   4.423  51.493  1.00  0.00     0.092 N 
HETATM   18  C5  UNL     1      23.530   5.908  51.583  1.00  0.00     0.298 C 
HETATM   19  C6  UNL     1      22.309   6.343  50.869  1.00  0.00     0.198 C 
HETATM   20  O1  UNL     1      21.228   5.516  50.919  1.00  0.00    -0.388 OA
HETATM   21  C7  UNL     1      21.251   4.451  51.748  1.00  0.00     0.198 C 
HETATM   22  C8  UNL     1      22.537   4.011  52.338  1.00  0.00     0.298 C 
ENDBRANCH  16  17
ENDBRANCH  15  16
ENDBRANCH  13  15
ENDBRANCH  11  13
ENDBRANCH   1  11
BRANCH   4  23
HETATM   23  N3  UNL     1      23.945  -0.761  52.994  1.00  0.00    -0.340 N 
HETATM   24  H19 UNL     1      23.985  -1.637  52.472  1.00  0.00     0.167 HD
BRANCH  23  25
HETATM   25  C13 UNL     1      22.668  -0.170  52.836  1.00  0.00     0.035 A 
HETATM   26  C14 UNL     1      21.813   0.046  53.890  1.00  0.00     0.032 A 
HETATM   27  C15 UNL     1      20.565   0.607  53.797  1.00  0.00     0.046 A 
HETATM   28  C16 UNL     1      20.087   1.002  52.565  1.00  0.00     0.133 A 
HETATM   29  F1  UNL     1      18.885   1.564  52.333  1.00  0.00    -0.205 F 
HETATM   30  C17 UNL     1      20.897   0.812  51.468  1.00  0.00     0.051 A 
HETATM   31 BR1  UNL     1      20.324   1.324  49.726  1.00  0.00    -0.048 Br
HETATM   32  C18 UNL     1      22.137   0.243  51.636  1.00  0.00     0.051 A 
ENDBRANCH  23  25
ENDBRANCH   4  23
TORSDOF 7
ENDMDL
