ROOT
HETATM    1  C6  UNL     1      22.261   0.511  52.440  1.00  0.00     0.159 A 
HETATM    2  N2  UNL     1      20.914   0.701  52.329  1.00  0.00    -0.220 NA
HETATM    3  C7  UNL     1      20.136   0.195  53.323  1.00  0.00     0.258 A 
HETATM    4  N3  UNL     1      20.686  -0.460  54.360  1.00  0.00    -0.161 NA
HETATM    5  N4  UNL     1      22.007  -0.651  54.479  1.00  0.00    -0.240 N 
HETATM    6  C8  UNL     1      22.856  -1.241  55.314  1.00  0.00     0.119 A 
HETATM    7  C9  UNL     1      24.160  -1.120  54.881  1.00  0.00     0.030 A 
HETATM    8  C10 UNL     1      24.131  -0.396  53.681  1.00  0.00    -0.007 A 
HETATM    9  C17 UNL     1      22.785  -0.158  53.512  1.00  0.00     0.112 A 
ENDROOT
BRANCH   1  10
HETATM   10  N1  UNL     1      22.848   1.072  51.247  1.00  0.00    -0.339 N 
HETATM   11  H6  UNL     1      23.109   0.762  50.287  1.00  0.00     0.167 HD
BRANCH  10  12
HETATM   12  C5  UNL     1      23.233   2.470  51.319  1.00  0.00     0.035 A 
HETATM   13  C4  UNL     1      22.753   3.412  52.244  1.00  0.00     0.032 A 
HETATM   14  C3  UNL     1      23.126   4.736  52.252  1.00  0.00     0.041 A 
HETATM   15  C2  UNL     1      24.019   5.205  51.316  1.00  0.00     0.090 A 
HETATM   16  C19 UNL     1      24.522   4.318  50.381  1.00  0.00     0.069 A 
HETATM   17  C18 UNL     1      24.126   2.998  50.402  1.00  0.00     0.056 A 
HETATM   18 CL1  UNL     1      25.666   4.877  49.174  1.00  0.00    -0.081 Cl
BRANCH  15  19
HETATM   19  O1  UNL     1      24.453   6.513  51.240  1.00  0.00    -0.354 OA
HETATM   20  C1  UNL     1      23.731   7.623  50.818  1.00  0.00     0.210 C 
ENDBRANCH  15  19
ENDBRANCH  10  12
ENDBRANCH   1  10
BRANCH   8  21
HETATM   21  C11 UNL     1      25.347   0.046  53.010  1.00  0.00     0.158 C 
BRANCH  21  22
HETATM   22  N5  UNL     1      26.385   0.572  53.860  1.00  0.00    -0.408 N 
HETATM   23  C12 UNL     1      26.656   1.957  53.618  1.00  0.00     0.119 C 
HETATM   24  C13 UNL     1      27.927   2.326  52.975  1.00  0.00     0.055 C 
HETATM   25  C14 UNL     1      29.077   1.525  53.530  1.00  0.00     0.221 C 
HETATM   26  C15 UNL     1      28.780   0.067  53.575  1.00  0.00     0.055 C 
HETATM   27  C16 UNL     1      27.463  -0.226  54.219  1.00  0.00     0.119 C 
BRANCH  25  28
HETATM   28  N6  UNL     1      29.494   2.082  54.787  1.00  0.00     0.083 N 
HETATM   29  H17 UNL     1      28.795   1.783  55.517  1.00  0.00     0.313 HD
HETATM   30  H18 UNL     1      29.453   3.132  54.769  1.00  0.00     0.313 HD
ENDBRANCH  25  28
ENDBRANCH  21  22
ENDBRANCH   8  21
TORSDOF 6
ENDMDL
