ROOT
HETATM    1  C8  UNL     1      25.486   2.564  51.138  1.00  0.00     0.152 C 
HETATM    2  N2  UNL     1      26.385   2.137  51.947  1.00  0.00    -0.184 NA
ENDROOT
BRANCH   2   3
HETATM    3  N3  UNL     1      26.237   1.040  52.776  1.00  0.00    -0.272 N 
HETATM    4  C9  UNL     1      24.970   0.719  53.351  1.00  0.00     0.180 C 
BRANCH   3   5
HETATM    5  C10 UNL     1      27.377   0.233  53.049  1.00  0.00     0.078 A 
HETATM    6  C11 UNL     1      27.576  -1.098  52.782  1.00  0.00     0.033 A 
HETATM    7  C12 UNL     1      28.774  -1.685  53.138  1.00  0.00     0.002 A 
HETATM    8  C13 UNL     1      29.765  -0.950  53.756  1.00  0.00     0.002 A 
HETATM    9  C14 UNL     1      29.587   0.385  54.033  1.00  0.00     0.031 A 
HETATM   10  C15 UNL     1      28.381   0.978  53.675  1.00  0.00     0.054 A 
BRANCH  10  11
HETATM   11  N4  UNL     1      28.313   2.367  54.013  1.00  0.00    -0.397 N 
HETATM   12  H14 UNL     1      29.059   3.059  54.195  1.00  0.00     0.156 HD
HETATM   13  H15 UNL     1      27.268   2.526  54.033  1.00  0.00     0.156 HD
ENDBRANCH  10  11
ENDBRANCH   3   5
ENDBRANCH   2   3
BRANCH   1  14
HETATM   14  C7  UNL     1      25.632   3.719  50.259  1.00  0.00     0.013 A 
HETATM   15  C2  UNL     1      24.522   4.477  49.981  1.00  0.00     0.067 A 
HETATM   16  C3  UNL     1      24.543   5.592  49.161  1.00  0.00     0.034 A 
HETATM   17  C4  UNL     1      25.749   5.977  48.580  1.00  0.00     0.026 A 
HETATM   18  C5  UNL     1      26.865   5.202  48.869  1.00  0.00     0.035 A 
HETATM   19 CL1  UNL     1      28.398   5.671  48.145  1.00  0.00    -0.084 Cl
HETATM   20  C6  UNL     1      26.829   4.093  49.688  1.00  0.00     0.039 A 
BRANCH  15  21
HETATM   21  N1  UNL     1      23.261   4.128  50.549  1.00  0.00    -0.271 NA
HETATM   22  C1  UNL     1      22.596   5.021  51.187  1.00  0.00     0.149 C 
ENDBRANCH  15  21
ENDBRANCH   1  14
TORSDOF 5
ENDMDL
