ROOT
HETATM    1  C1  UNL     1      28.509   5.506  48.206  1.00  0.00     0.011 C 
HETATM    2  C2  UNL     1      27.601   4.784  48.782  1.00  0.00    -0.010 C 
HETATM    3  C3  UNL     1      26.618   3.930  49.323  1.00  0.00     0.010 C 
ENDROOT
BRANCH   3   4
HETATM    4  C4  UNL     1      25.815   3.762  50.355  1.00  0.00    -0.008 A 
HETATM    5  C5  UNL     1      26.530   2.778  51.165  1.00  0.00     0.114 A 
HETATM    6  C6  UNL     1      26.892   1.732  51.958  1.00  0.00     0.024 C 
HETATM    7  N1  UNL     1      25.375   2.878  52.219  1.00  0.00    -0.337 N 
HETATM    8  C7  UNL     1      26.313   0.550  52.661  1.00  0.00    -0.037 C 
HETATM    9  C12 UNL     1      24.969   0.257  52.675  1.00  0.00     0.011 C 
HETATM   10  C13 UNL     1      23.541   0.364  52.402  1.00  0.00    -0.003 C 
HETATM   11  C14 UNL     1      22.584   1.052  51.732  1.00  0.00    -0.027 C 
HETATM   12  C15 UNL     1      21.617   1.854  50.968  1.00  0.00     0.027 C 
HETATM   13  C16 UNL     1      22.084   2.745  49.922  1.00  0.00     0.004 C 
HETATM   14  C17 UNL     1      21.421   4.074  49.614  1.00  0.00     0.004 C 
HETATM   15  C18 UNL     1      22.248   5.253  50.358  1.00  0.00     0.028 C 
HETATM   16  C19 UNL     1      23.646   4.744  50.060  1.00  0.00    -0.009 C 
HETATM   17  C20 UNL     1      24.592   4.218  50.856  1.00  0.00     0.037 A 
HETATM   18  C21 UNL     1      24.156   3.740  52.102  1.00  0.00     0.253 A 
HETATM   19  O1  UNL     1      23.104   4.106  52.627  1.00  0.00    -0.268 OA
HETATM   20  H25 UNL     1      25.064   2.551  53.269  1.00  0.00     0.164 HD
BRANCH   8  21
HETATM   21  C8  UNL     1      27.253  -0.312  53.218  1.00  0.00     0.007 C 
HETATM   22  C9  UNL     1      28.446   0.198  53.352  1.00  0.00    -0.026 C 
BRANCH  22  23
HETATM   23  C10 UNL     1      29.512  -0.635  53.925  1.00  0.00     0.022 C 
HETATM   24  C11 UNL     1      29.407  -2.047  53.338  1.00  0.00     0.009 C 
ENDBRANCH  22  23
ENDBRANCH   8  21
ENDBRANCH   3   4
TORSDOF 3
ENDMDL
