ROOT
HETATM    1  C3  UNL     1      23.787  -0.328  53.873  1.00  0.00    -0.014 A 
HETATM    2  C4  UNL     1      23.661   0.598  52.895  1.00  0.00     0.022 A 
HETATM    3  C5  UNL     1      24.780   1.377  52.561  1.00  0.00    -0.034 A 
HETATM    4  C15 UNL     1      25.924   1.111  53.283  1.00  0.00     0.022 A 
HETATM    5  C16 UNL     1      26.081   0.168  54.289  1.00  0.00    -0.014 A 
HETATM    6  C19 UNL     1      24.960  -0.571  54.583  1.00  0.00     0.079 A 
ENDROOT
BRANCH   3   7
HETATM    7  C6  UNL     1      24.661   2.375  51.512  1.00  0.00     0.021 C 
HETATM    8  C7  UNL     1      24.169   3.584  51.711  1.00  0.00    -0.027 C 
HETATM    9  C8  UNL     1      23.640   4.269  52.897  1.00  0.00     0.159 C 
HETATM   10  C14 UNL     1      24.043   4.590  50.637  1.00  0.00    -0.002 A 
HETATM   11  N1  UNL     1      23.938   5.679  52.597  1.00  0.00    -0.385 N 
HETATM   12  C9  UNL     1      23.904   5.851  51.200  1.00  0.00     0.039 A 
HETATM   13  H10 UNL     1      24.145   6.441  53.305  1.00  0.00     0.160 HD
HETATM   14  C10 UNL     1      23.766   6.983  50.426  1.00  0.00     0.030 A 
HETATM   15  C11 UNL     1      23.775   6.786  49.040  1.00  0.00     0.002 A 
HETATM   16  C12 UNL     1      23.909   5.568  48.426  1.00  0.00     0.001 A 
HETATM   17  C13 UNL     1      24.042   4.490  49.261  1.00  0.00     0.014 A 
ENDBRANCH   3   7
BRANCH   1  18
HETATM   18  C2  UNL     1      22.576  -1.135  54.185  1.00  0.00     0.114 C 
BRANCH  18  19
HETATM   19  S1  UNL     1      21.153  -0.130  54.605  1.00  0.00    -0.169 SA
HETATM   20  C1  UNL     1      19.844  -0.477  53.390  1.00  0.00     0.090 C 
ENDBRANCH  18  19
ENDBRANCH   1  18
BRANCH   5  21
HETATM   21  C17 UNL     1      27.413   0.093  54.907  1.00  0.00     0.114 C 
BRANCH  21  22
HETATM   22  S2  UNL     1      28.725   0.533  53.786  1.00  0.00    -0.169 SA
HETATM   23  C18 UNL     1      29.901  -0.805  53.568  1.00  0.00     0.090 C 
ENDBRANCH  21  22
ENDBRANCH   5  21
BRANCH   6  24
HETATM   24  O1  UNL     1      25.065  -1.525  55.578  1.00  0.00    -0.360 OA
HETATM   25  H21 UNL     1      24.225  -1.773  56.109  1.00  0.00     0.217 HD
ENDBRANCH   6  24
TORSDOF 6
ENDMDL
