ROOT
HETATM    1  C1  UNL     1      24.435   2.484  49.919  1.00  0.00     0.042 C 
HETATM    2  C2  UNL     1      24.147   3.265  50.922  1.00  0.00    -0.043 A 
HETATM    3  C3  UNL     1      23.634   4.578  50.546  1.00  0.00     0.006 A 
HETATM    4  C4  UNL     1      23.300   5.438  51.498  1.00  0.00     0.000 A 
HETATM    5  C5  UNL     1      23.450   5.059  52.895  1.00  0.00    -0.001 A 
HETATM    6  C6  UNL     1      23.912   3.884  53.169  1.00  0.00     0.013 A 
HETATM    7  C7  UNL     1      24.362   2.736  52.278  1.00  0.00     0.099 A 
HETATM    8  N1  UNL     1      25.668   2.510  52.693  1.00  0.00    -0.379 N 
HETATM    9  C8  UNL     1      26.653   1.884  51.941  1.00  0.00     0.218 C 
HETATM   10  C9  UNL     1      26.911   0.442  52.337  1.00  0.00     0.165 C 
HETATM   11  N2  UNL     1      26.774   0.467  53.796  1.00  0.00    -0.198 NA
HETATM   12  N3  UNL     1      27.616   1.405  54.297  1.00  0.00    -0.311 N 
HETATM   13  C10 UNL     1      28.468   2.246  53.477  1.00  0.00     0.214 C 
HETATM   14  N4  UNL     1      27.921   2.557  52.321  1.00  0.00    -0.257 NA
HETATM   15  C11 UNL     1      25.411   0.435  54.198  1.00  0.00     0.217 C 
HETATM   16  C12 UNL     1      25.173  -0.969  54.764  1.00  0.00     0.059 C 
HETATM   17  O1  UNL     1      24.647   0.633  53.025  1.00  0.00    -0.341 OA
HETATM   18  C13 UNL     1      23.295   0.447  53.027  1.00  0.00     0.147 C 
HETATM   19  C14 UNL     1      23.397   1.658  52.607  1.00  0.00     0.002 C 
HETATM   20  H7  UNL     1      26.020   2.994  53.540  1.00  0.00     0.157 HD
HETATM   21  H11 UNL     1      27.655   1.536  55.348  1.00  0.00     0.181 HD
ENDROOT
BRANCH  19  22
HETATM   22  C15 UNL     1      21.952   1.743  52.499  1.00  0.00     0.049 C 
HETATM   23  C16 UNL     1      21.020   1.479  51.612  1.00  0.00     0.090 C 
HETATM   24  C17 UNL     1      21.038   0.945  50.249  1.00  0.00     0.082 C 
HETATM   25  F1  UNL     1      19.743   1.772  52.075  1.00  0.00    -0.211 F 
ENDBRANCH  19  22
TORSDOF 1
ENDMDL
