ROOT
HETATM    1  C6  UNL     1      23.997   2.560  50.995  1.00  0.00     0.119 A 
HETATM    2  C7  UNL     1      24.416   1.461  51.890  1.00  0.00     0.080 A 
HETATM    3  N2  UNL     1      23.365   0.907  52.423  1.00  0.00    -0.158 NA
HETATM    4  N3  UNL     1      23.606  -0.169  53.318  1.00  0.00    -0.184 N 
HETATM    5  C8  UNL     1      24.874  -0.801  53.606  1.00  0.00     0.165 A 
HETATM    6  C9  UNL     1      25.127  -0.875  55.097  1.00  0.00     0.082 C 
HETATM    7  C10 UNL     1      23.904  -1.414  55.784  1.00  0.00     0.116 C 
HETATM    8  N4  UNL     1      22.696  -1.353  55.322  1.00  0.00    -0.172 NA
HETATM    9  N5  UNL     1      22.529  -0.719  54.065  1.00  0.00    -0.197 N 
HETATM   10  C11 UNL     1      21.179  -0.632  53.532  1.00  0.00     0.204 C 
HETATM   11  C12 UNL     1      25.981  -0.092  52.963  1.00  0.00    -0.043 A 
HETATM   12  C13 UNL     1      27.394  -0.450  53.128  1.00  0.00     0.046 C 
HETATM   13  C14 UNL     1      25.734   0.926  52.191  1.00  0.00     0.012 A 
HETATM   14  C15 UNL     1      26.698   1.740  51.471  1.00  0.00     0.126 A 
HETATM   15  N6  UNL     1      26.410   2.707  50.742  1.00  0.00    -0.265 NA
HETATM   16  C16 UNL     1      25.176   3.261  50.420  1.00  0.00     0.352 A 
ENDROOT
BRANCH   1  17
HETATM   17  C5  UNL     1      22.969   2.141  50.018  1.00  0.00     0.015 C 
BRANCH  17  18
HETATM   18  C4  UNL     1      21.918   1.857  49.271  1.00  0.00     0.026 C 
BRANCH  18  19
HETATM   19  N1  UNL     1      20.874   0.972  49.648  1.00  0.00    -0.326 N 
HETATM   20  C3  UNL     1      19.790   1.168  50.531  1.00  0.00     0.244 C 
HETATM   21  O1  UNL     1      19.627   2.256  51.127  1.00  0.00    -0.268 OA
HETATM   22  H4  UNL     1      20.706  -0.010  49.340  1.00  0.00     0.169 HD
BRANCH  20  23
HETATM   23  C2  UNL     1      18.693   0.327  50.965  1.00  0.00     0.064 C 
HETATM   24  C1  UNL     1      17.674   0.331  50.122  1.00  0.00     0.017 C 
ENDBRANCH  20  23
ENDBRANCH  18  19
BRANCH  18  25
HETATM   25  C17 UNL     1      21.561   2.383  47.933  1.00  0.00     0.173 C 
BRANCH  25  26
HETATM   26  N8  UNL     1      20.655   3.461  48.039  1.00  0.00    -0.410 N 
HETATM   27  C18 UNL     1      19.399   3.348  47.382  1.00  0.00     0.143 C 
BRANCH  26  28
HETATM   28  C19 UNL     1      21.248   4.759  48.083  1.00  0.00     0.147 C 
BRANCH  28  29
HETATM   29  C20 UNL     1      20.794   5.587  49.265  1.00  0.00     0.290 C 
BRANCH  29  30
HETATM   30  N9  UNL     1      21.869   5.894  50.191  1.00  0.00     0.081 N 
HETATM   31  C21 UNL     1      21.519   5.248  51.459  1.00  0.00     0.309 C 
HETATM   32  C22 UNL     1      21.855   7.321  50.473  1.00  0.00     0.309 C 
ENDBRANCH  29  30
ENDBRANCH  28  29
ENDBRANCH  26  28
ENDBRANCH  25  26
ENDBRANCH  18  25
ENDBRANCH  17  18
ENDBRANCH   1  17
BRANCH  16  33
HETATM   33  N7  UNL     1      25.174   4.689  50.770  1.00  0.00     0.104 N 
HETATM   34  H19 UNL     1      25.665   5.252  50.028  1.00  0.00     0.315 HD
HETATM   35  H20 UNL     1      25.745   4.775  51.630  1.00  0.00     0.315 HD
ENDBRANCH  16  33
TORSDOF 10
ENDMDL
