ROOT
HETATM    1  C1  UNL     1      22.067  -1.072  54.759  1.00  0.00     0.099 C 
HETATM    2  C2  UNL     1      22.754  -0.378  53.913  1.00  0.00    -0.125 C 
HETATM    3  C3  UNL     1      23.497   0.282  53.076  1.00  0.00     0.088 A 
HETATM    4  C4  UNL     1      24.850   0.240  53.055  1.00  0.00     0.011 A 
HETATM    5  C7  UNL     1      25.169   1.102  51.994  1.00  0.00     0.049 A 
HETATM    6  C9  UNL     1      23.979   1.608  51.445  1.00  0.00     0.098 A 
HETATM    7  N1  UNL     1      22.974   1.064  52.156  1.00  0.00    -0.338 N 
HETATM    8  C16 UNL     1      21.600   1.350  51.886  1.00  0.00     0.158 C 
ENDROOT
BRANCH   4   9
HETATM    9  C5  UNL     1      25.691  -0.435  53.828  1.00  0.00    -0.016 C 
HETATM   10  C6  UNL     1      26.418   0.164  54.972  1.00  0.00     0.037 C 
ENDBRANCH   4   9
BRANCH   5  11
HETATM   11  C8  UNL     1      26.545   1.404  51.557  1.00  0.00     0.273 C 
HETATM   12  O1  UNL     1      27.224   2.388  51.948  1.00  0.00    -0.301 OA
ENDBRANCH   5  11
BRANCH   6  13
HETATM   13  S1  UNL     1      24.023   2.747  50.066  1.00  0.00    -0.033 SA
BRANCH  13  14
HETATM   14  S2  UNL     1      24.382   4.677  50.823  1.00  0.00    -0.051 SA
BRANCH  14  15
HETATM   15  C10 UNL     1      25.681   5.443  49.875  1.00  0.00     0.011 A 
HETATM   16  C11 UNL     1      25.917   6.769  49.587  1.00  0.00     0.019 A 
HETATM   17  C12 UNL     1      27.005   7.111  48.814  1.00  0.00     0.001 A 
HETATM   18  C13 UNL     1      27.889   6.186  48.301  1.00  0.00     0.000 A 
HETATM   19  C14 UNL     1      27.655   4.858  48.588  1.00  0.00     0.001 A 
HETATM   20  C15 UNL     1      26.559   4.475  49.369  1.00  0.00     0.019 A 
ENDBRANCH  14  15
ENDBRANCH  13  14
ENDBRANCH   6  13
TORSDOF 5
ENDMDL
