ROOT
HETATM    1  C2  UNL     1      20.626   0.479  53.380  1.00  0.00     0.195 C 
HETATM    2  C3  UNL     1      19.735   1.352  52.530  1.00  0.00     0.125 C 
HETATM    3  N1  UNL     1      20.234   2.483  52.616  1.00  0.00    -0.274 NA
HETATM    4  C4  UNL     1      19.860   3.668  52.062  1.00  0.00     0.117 C 
HETATM    5  C5  UNL     1      20.903   4.097  51.433  1.00  0.00     0.033 C 
HETATM    6  C6  UNL     1      22.271   3.813  51.092  1.00  0.00    -0.003 C 
HETATM    7  C7  UNL     1      22.832   2.692  51.489  1.00  0.00    -0.002 C 
HETATM    8  C8  UNL     1      22.173   1.678  52.256  1.00  0.00     0.057 C 
HETATM    9  C9  UNL     1      22.020   0.543  52.926  1.00  0.00     0.012 C 
HETATM   10  C10 UNL     1      22.923  -0.532  53.482  1.00  0.00     0.177 C 
HETATM   11  O2  UNL     1      22.268  -1.476  53.984  1.00  0.00    -0.288 OA
HETATM   12  C11 UNL     1      24.377  -0.625  53.510  1.00  0.00     0.051 C 
HETATM   13  C12 UNL     1      25.633  -0.150  53.336  1.00  0.00    -0.018 C 
HETATM   14  C13 UNL     1      25.878   1.210  52.875  1.00  0.00     0.005 C 
HETATM   15  C14 UNL     1      26.911   1.800  53.914  1.00  0.00     0.014 C 
HETATM   16  C15 UNL     1      26.493   1.352  51.527  1.00  0.00     0.028 C 
HETATM   17  C16 UNL     1      26.543   2.860  51.246  1.00  0.00     0.120 C 
HETATM   18  N2  UNL     1      26.683   3.093  49.836  1.00  0.00    -0.390 N 
HETATM   19  C17 UNL     1      26.467   4.388  49.267  1.00  0.00     0.025 C 
HETATM   20  C20 UNL     1      25.326   5.127  49.312  1.00  0.00     0.015 C 
HETATM   21  C21 UNL     1      24.251   4.412  50.066  1.00  0.00     0.088 C 
HETATM   22  C22 UNL     1      22.974   4.854  50.295  1.00  0.00     0.112 C 
HETATM   23  F1  UNL     1      22.126   5.950  50.029  1.00  0.00    -0.209 F 
HETATM   24  H20 UNL     1      26.951   2.308  49.197  1.00  0.00     0.159 HD
ENDROOT
BRANCH  19  25
HETATM   25  C18 UNL     1      27.688   4.808  48.609  1.00  0.00     0.040 C 
HETATM   26  C19 UNL     1      28.425   5.840  48.251  1.00  0.00     0.086 C 
HETATM   27 CL1  UNL     1      29.818   6.572  47.511  1.00  0.00    -0.097 Cl
ENDBRANCH  19  25
BRANCH   1  28
HETATM   28  O1  UNL     1      20.163  -0.827  53.370  1.00  0.00    -0.381 OA
HETATM   29  C1  UNL     1      18.788  -0.829  53.108  1.00  0.00     0.202 C 
ENDBRANCH   1  28
TORSDOF 2
ENDMDL
