ROOT
HETATM    1  C4  UNL     1      27.483   0.358  53.237  1.00  0.00     0.018 C 
HETATM    2  C5  UNL     1      26.318  -0.179  53.615  1.00  0.00     0.008 C 
HETATM    3  C6  UNL     1      25.228  -0.353  52.652  1.00  0.00     0.116 C 
HETATM    4  C7  UNL     1      23.912  -0.488  53.295  1.00  0.00     0.051 A 
HETATM    5  N1  UNL     1      22.801  -0.270  52.550  1.00  0.00    -0.232 NA
HETATM    6  C8  UNL     1      21.567  -0.378  53.082  1.00  0.00     0.159 A 
HETATM    7  N2  UNL     1      21.450  -0.712  54.381  1.00  0.00    -0.240 NA
HETATM    8  C16 UNL     1      22.493  -0.948  55.198  1.00  0.00     0.130 A 
HETATM    9  C17 UNL     1      23.739  -0.828  54.621  1.00  0.00     0.002 A 
HETATM   10  C18 UNL     1      24.917  -1.081  55.494  1.00  0.00     0.161 C 
HETATM   11  N3  UNL     1      26.135  -0.580  54.946  1.00  0.00    -0.389 N 
HETATM   12  H18 UNL     1      26.879  -0.553  55.677  1.00  0.00     0.159 HD
ENDROOT
BRANCH   6  13
HETATM   13  C9  UNL     1      20.336  -0.155  52.326  1.00  0.00     0.012 A 
HETATM   14  C10 UNL     1      20.322   0.523  51.127  1.00  0.00     0.016 A 
HETATM   15  C11 UNL     1      19.139   0.728  50.421  1.00  0.00     0.019 A 
HETATM   16  C12 UNL     1      17.938   0.255  50.903  1.00  0.00     0.037 A 
HETATM   17  C14 UNL     1      17.941  -0.423  52.099  1.00  0.00     0.019 A 
HETATM   18  C15 UNL     1      19.108  -0.610  52.771  1.00  0.00     0.016 A 
BRANCH  16  19
HETATM   19  C13 UNL     1      16.697   0.458  50.182  1.00  0.00     0.176 C 
HETATM   20  O1  UNL     1      15.777   1.175  50.617  1.00  0.00    -0.646 OA
BRANCH  19  21
HETATM   21  O2  UNL     1      16.490  -0.150  48.961  1.00  0.00    -0.773 OA
HETATM   22  H12 UNL     1      16.287   0.389  48.117  1.00  0.00     0.167 HD
ENDBRANCH  19  21
ENDBRANCH  16  19
ENDBRANCH   6  13
BRANCH   1  23
HETATM   23  C3  UNL     1      28.600   0.539  54.214  1.00  0.00     0.106 C 
HETATM   24 CL1  UNL     1      29.098   2.259  54.171  1.00  0.00    -0.121 Cl
BRANCH  23  25
HETATM   25  C2  UNL     1      29.778  -0.257  53.693  1.00  0.00     0.019 C 
HETATM   26  C1  UNL     1      29.440  -1.682  53.391  1.00  0.00     0.007 C 
ENDBRANCH  23  25
ENDBRANCH   1  23
TORSDOF 5
ENDMDL
