ROOT
HETATM    1  N1  UNL     1      23.646   2.954  51.348  1.00  0.00    -0.337 N 
ENDROOT
BRANCH   1   2
HETATM    2  C2  UNL     1      24.499   3.009  50.235  1.00  0.00     0.133 C 
HETATM    3  C1  UNL     1      23.912   3.944  49.195  1.00  0.00     0.028 C 
ENDBRANCH   1   2
BRANCH   1   4
HETATM    4  C3  UNL     1      23.957   3.666  52.519  1.00  0.00     0.232 C 
BRANCH   4   5
HETATM    5  C4  UNL     1      24.910   2.850  53.281  1.00  0.00    -0.055 C 
HETATM    6  C5  UNL     1      25.679   2.179  53.924  1.00  0.00     0.061 C 
BRANCH   6   7
HETATM    7  O1  UNL     1      26.537   1.416  54.670  1.00  0.00    -0.261 OA
BRANCH   7   8
HETATM    8  C6  UNL     1      27.277   0.353  54.126  1.00  0.00     0.087 A 
HETATM    9  C7  UNL     1      26.614  -0.533  53.324  1.00  0.00     0.038 A 
HETATM   10  C8  UNL     1      27.282  -1.606  52.754  1.00  0.00     0.003 A 
HETATM   11  C9  UNL     1      28.623  -1.696  53.056  1.00  0.00     0.000 A 
HETATM   12  C10 UNL     1      29.300  -0.830  53.850  1.00  0.00     0.003 A 
HETATM   13  C11 UNL     1      28.636   0.257  54.432  1.00  0.00     0.038 A 
ENDBRANCH   7   8
ENDBRANCH   6   7
ENDBRANCH   4   5
ENDBRANCH   1   4
BRANCH   1  14
HETATM   14  N2  UNL     1      22.361   2.540  51.192  1.00  0.00    -0.238 NA
HETATM   15  H13 UNL     1      21.989   2.955  50.294  1.00  0.00     0.146 HD
BRANCH  14  16
HETATM   16  C12 UNL     1      22.233   1.104  51.036  1.00  0.00     0.148 C 
BRANCH  16  17
HETATM   17  C13 UNL     1      21.968   0.550  52.387  1.00  0.00    -0.044 A 
HETATM   18  C14 UNL     1      22.924  -0.332  52.901  1.00  0.00     0.008 A 
HETATM   19  C15 UNL     1      22.830  -0.934  54.146  1.00  0.00     0.001 A 
HETATM   20  C16 UNL     1      21.741  -0.661  54.939  1.00  0.00     0.000 A 
HETATM   21  C17 UNL     1      20.793   0.208  54.442  1.00  0.00     0.001 A 
HETATM   22  C18 UNL     1      20.883   0.806  53.207  1.00  0.00     0.008 A 
ENDBRANCH  16  17
ENDBRANCH  14  16
ENDBRANCH   1  14
TORSDOF 8
ENDMDL
