ROOT
HETATM    1  C3  UNL     1      21.350   0.607  51.578  1.00  0.00     0.002 C 
HETATM    2  C4  UNL     1      22.577   1.048  51.702  1.00  0.00     0.031 C 
ENDROOT
BRANCH   2   3
HETATM    3  C5  UNL     1      23.668   0.411  52.428  1.00  0.00     0.042 C 
HETATM    4  C6  UNL     1      23.700  -0.226  53.551  1.00  0.00     0.010 A 
HETATM    5  C7  UNL     1      22.535  -0.464  54.403  1.00  0.00     0.192 A 
HETATM    6  C9  UNL     1      25.049  -0.689  53.941  1.00  0.00     0.137 A 
HETATM    7  N1  UNL     1      22.906  -1.141  55.599  1.00  0.00    -0.278 NA
HETATM    8  C8  UNL     1      24.091  -1.509  55.883  1.00  0.00     0.229 A 
HETATM    9  N2  UNL     1      25.224  -1.300  55.058  1.00  0.00    -0.224 NA
BRANCH   6  10
HETATM   10  N3  UNL     1      26.231  -0.502  53.151  1.00  0.00    -0.343 N 
HETATM   11  H11 UNL     1      26.316  -1.113  52.293  1.00  0.00     0.167 HD
BRANCH  10  12
HETATM   12  C10 UNL     1      27.248   0.463  53.493  1.00  0.00     0.029 A 
HETATM   13  C11 UNL     1      27.240   1.718  53.099  1.00  0.00     0.026 A 
HETATM   14  C12 UNL     1      28.415   2.396  53.632  1.00  0.00    -0.001 A 
HETATM   15  C13 UNL     1      29.118   1.515  54.352  1.00  0.00    -0.005 A 
HETATM   16  C14 UNL     1      28.418   0.183  54.322  1.00  0.00     0.130 A 
HETATM   17 BR1  UNL     1      29.632  -1.088  53.541  1.00  0.00    -0.080 Br
ENDBRANCH  10  12
ENDBRANCH   6  10
ENDBRANCH   2   3
BRANCH   2  18
HETATM   18  N4  UNL     1      22.475   2.238  50.941  1.00  0.00    -0.326 N 
HETATM   19  C15 UNL     1      22.698   3.555  51.402  1.00  0.00     0.246 C 
HETATM   20  O1  UNL     1      22.992   4.370  52.298  1.00  0.00    -0.271 OA
HETATM   21  H16 UNL     1      22.234   2.353  49.931  1.00  0.00     0.169 HD
BRANCH  19  22
HETATM   22  C16 UNL     1      22.616   4.845  50.685  1.00  0.00     0.278 C 
BRANCH  22  23
HETATM   23  O2  UNL     1      23.163   4.735  49.405  1.00  0.00    -0.342 OA
BRANCH  23  24
HETATM   24  C17 UNL     1      24.541   4.693  49.257  1.00  0.00     0.069 A 
HETATM   25  C18 UNL     1      25.431   3.670  49.493  1.00  0.00     0.040 A 
HETATM   26  C19 UNL     1      26.779   3.846  49.276  1.00  0.00     0.045 A 
HETATM   27  C20 UNL     1      27.268   5.072  48.811  1.00  0.00     0.116 A 
HETATM   28  F1  UNL     1      28.607   5.156  48.626  1.00  0.00    -0.206 F 
HETATM   29  C21 UNL     1      26.383   6.101  48.573  1.00  0.00     0.045 A 
HETATM   30  C22 UNL     1      25.012   5.927  48.791  1.00  0.00     0.040 A 
ENDBRANCH  23  24
ENDBRANCH  22  23
ENDBRANCH  19  22
ENDBRANCH   2  18
BRANCH   1  31
HETATM   31  C2  UNL     1      19.982   0.705  51.087  1.00  0.00     0.025 C 
HETATM   32  C1  UNL     1      18.956  -0.075  51.898  1.00  0.00     0.009 C 
ENDBRANCH   1  31
TORSDOF 8
ENDMDL
