ROOT
HETATM    1  C1  UNL     1      29.969  -1.049  53.774  1.00  0.00     0.014 C 
HETATM    2  C2  UNL     1      29.417   0.031  53.596  1.00  0.00    -0.096 C 
HETATM    3  C3  UNL     1      28.729   1.322  53.379  1.00  0.00     0.243 C 
ENDROOT
BRANCH   3   4
HETATM    4  N1  UNL     1      27.356   1.055  53.117  1.00  0.00    -0.270 N 
HETATM    5  C4  UNL     1      26.852   1.507  51.870  1.00  0.00     0.114 C 
HETATM    6  C5  UNL     1      26.107   2.352  51.236  1.00  0.00     0.035 C 
HETATM    7  C6  UNL     1      25.316   3.223  50.398  1.00  0.00     0.028 A 
HETATM    8  C7  UNL     1      26.041   4.295  49.950  1.00  0.00     0.133 A 
HETATM    9  C9  UNL     1      24.006   2.937  50.118  1.00  0.00     0.136 A 
HETATM   10  N2  UNL     1      25.444   5.218  49.128  1.00  0.00    -0.253 NA
HETATM   11  C8  UNL     1      24.157   4.925  48.860  1.00  0.00     0.234 A 
HETATM   12  N3  UNL     1      23.465   3.859  49.315  1.00  0.00    -0.224 NA
HETATM   13  N4  UNL     1      23.055   1.944  50.451  1.00  0.00    -0.371 N 
HETATM   14  C10 UNL     1      22.990   1.970  51.872  1.00  0.00     0.150 C 
HETATM   15  H8  UNL     1      22.569   1.376  49.724  1.00  0.00     0.161 HD
HETATM   16  C11 UNL     1      21.981   1.054  52.489  1.00  0.00     0.015 C 
HETATM   17  C12 UNL     1      22.094   0.018  53.360  1.00  0.00     0.052 C 
HETATM   18 CL1  UNL     1      20.379  -0.463  53.536  1.00  0.00    -0.086 Cl
HETATM   19  C13 UNL     1      23.558  -0.074  53.619  1.00  0.00     0.176 A 
HETATM   20  F1  UNL     1      22.794  -0.964  54.270  1.00  0.00    -0.373 F 
HETATM   21  C14 UNL     1      24.328  -0.873  54.384  1.00  0.00     0.217 A 
HETATM   22  C15 UNL     1      25.688  -0.357  54.113  1.00  0.00     0.149 C 
HETATM   23  N5  UNL     1      26.115   0.567  53.381  1.00  0.00    -0.186 NA
ENDBRANCH   3   4
TORSDOF 1
ENDMDL
