ROOT
HETATM    1  C2  UNL     1      22.568   2.099  49.938  1.00  0.00     0.173 C 
HETATM    2  N1  UNL     1      22.434   1.126  50.763  1.00  0.00    -0.221 NA
HETATM    3  C3  UNL     1      23.063   1.248  52.010  1.00  0.00     0.231 C 
HETATM    4  N2  UNL     1      23.746   1.441  53.081  1.00  0.00    -0.257 NA
HETATM    5  C4  UNL     1      24.966   2.219  53.012  1.00  0.00     0.222 C 
HETATM    6  C5  UNL     1      25.997   1.694  53.941  1.00  0.00     0.031 C 
HETATM    7  C6  UNL     1      27.004   0.918  53.551  1.00  0.00    -0.011 C 
HETATM    8 BR1  UNL     1      28.297   0.279  54.803  1.00  0.00    -0.056 Br
HETATM    9  C7  UNL     1      27.063   0.584  52.107  1.00  0.00     0.062 C 
HETATM   10  C8  UNL     1      26.492   1.623  51.207  1.00  0.00     0.116 C 
HETATM   11  N3  UNL     1      25.377   2.338  51.671  1.00  0.00    -0.222 NA
HETATM   12  N4  UNL     1      25.446   3.675  51.325  1.00  0.00    -0.231 NA
HETATM   13  C9  UNL     1      24.540   4.088  50.295  1.00  0.00     0.205 C 
HETATM   14  C10 UNL     1      24.088   5.501  50.606  1.00  0.00     0.210 C 
HETATM   15  O2  UNL     1      23.748   5.641  51.954  1.00  0.00    -0.379 OA
HETATM   16  C11 UNL     1      22.477   5.054  52.175  1.00  0.00     0.271 C 
HETATM   17  C12 UNL     1      22.303   3.952  51.157  1.00  0.00     0.250 C 
HETATM   18  O3  UNL     1      21.096   3.541  50.991  1.00  0.00    -0.271 OA
HETATM   19  N5  UNL     1      23.309   3.292  50.339  1.00  0.00    -0.277 N 
HETATM   20  H9  UNL     1      26.402   4.027  51.214  1.00  0.00     0.143 HD
ENDROOT
BRANCH   1  21
HETATM   21  C1  UNL     1      22.302   2.711  48.651  1.00  0.00     0.309 C 
HETATM   22  O1  UNL     1      22.344   2.809  47.405  1.00  0.00    -0.298 OA
ENDBRANCH   1  21
TORSDOF 1
ENDMDL
