ROOT
HETATM    1  C3  UNL     1      22.384   0.376  53.202  1.00  0.00    -0.056 C 
HETATM    2  C4  UNL     1      23.624   0.786  53.375  1.00  0.00     0.024 C 
HETATM    3  C5  UNL     1      24.876   1.356  52.858  1.00  0.00     0.118 C 
HETATM    4  N1  UNL     1      25.124   1.704  51.681  1.00  0.00    -0.255 NA
HETATM    5  C6  UNL     1      26.281   2.254  51.105  1.00  0.00     0.229 C 
HETATM    6  N2  UNL     1      26.071   3.330  50.484  1.00  0.00    -0.246 NA
HETATM    7  C7  UNL     1      24.874   4.065  50.270  1.00  0.00     0.176 C 
HETATM    8  C15 UNL     1      24.221   4.609  51.495  1.00  0.00     0.205 C 
HETATM    9  C16 UNL     1      22.987   3.956  51.965  1.00  0.00     0.311 C 
HETATM   10  N4  UNL     1      21.923   4.853  51.708  1.00  0.00     0.114 N 
HETATM   11  C17 UNL     1      20.829   4.372  50.945  1.00  0.00     0.277 C 
HETATM   12  C18 UNL     1      20.650   2.887  51.022  1.00  0.00     0.056 C 
HETATM   13  C19 UNL     1      20.355   2.336  52.380  1.00  0.00     0.169 C 
HETATM   14  O2  UNL     1      20.241   0.976  52.324  1.00  0.00    -0.387 OA
HETATM   15  C20 UNL     1      21.374   0.275  52.077  1.00  0.00     0.202 C 
HETATM   16  C21 UNL     1      22.532   6.043  51.213  1.00  0.00     0.441 C 
HETATM   17  O3  UNL     1      23.887   5.944  51.358  1.00  0.00    -0.351 OA
ENDROOT
BRANCH   7  18
HETATM   18  C8  UNL     1      23.938   3.181  49.432  1.00  0.00     0.222 C 
BRANCH  18  19
HETATM   19  O1  UNL     1      23.358   4.046  48.487  1.00  0.00    -0.396 OA
HETATM   20  H11 UNL     1      23.239   4.909  48.957  1.00  0.00     0.209 HD
ENDBRANCH  18  19
ENDBRANCH   7  18
BRANCH   7  21
HETATM   21  N3  UNL     1      25.103   5.222  49.384  1.00  0.00    -0.358 N 
HETATM   22  H12 UNL     1      24.298   5.782  48.966  1.00  0.00     0.162 HD
BRANCH  21  23
HETATM   23  C9  UNL     1      26.377   5.695  49.009  1.00  0.00     0.031 A 
HETATM   24  C10 UNL     1      27.440   4.907  48.628  1.00  0.00     0.032 A 
HETATM   25  C11 UNL     1      28.692   5.349  48.268  1.00  0.00     0.046 A 
HETATM   26  C12 UNL     1      28.940   6.691  48.278  1.00  0.00     0.138 A 
HETATM   27  F1  UNL     1      30.158   7.172  47.932  1.00  0.00    -0.204 F 
HETATM   28  C13 UNL     1      27.922   7.540  48.651  1.00  0.00     0.074 A 
HETATM   29 CL1  UNL     1      28.180   9.270  48.683  1.00  0.00    -0.081 Cl
HETATM   30  C14 UNL     1      26.688   7.038  49.001  1.00  0.00     0.056 A 
ENDBRANCH  21  23
ENDBRANCH   7  21
BRANCH   1  31
HETATM   31  C2  UNL     1      21.562  -0.176  54.337  1.00  0.00     0.032 C 
HETATM   32  C1  UNL     1      21.790  -1.665  54.545  1.00  0.00     0.010 C 
ENDBRANCH   1  31
TORSDOF 5
ENDMDL
