ROOT
HETATM    1  C8  UNL     1      23.982   1.395  52.934  1.00  0.00     0.045 A 
HETATM    2  C9  UNL     1      22.803   0.725  53.072  1.00  0.00     0.049 A 
HETATM    3  C10 UNL     1      22.670  -0.475  53.773  1.00  0.00     0.122 A 
HETATM    4  N2  UNL     1      23.768  -1.028  54.363  1.00  0.00    -0.236 NA
HETATM    5  C11 UNL     1      24.947  -0.394  54.248  1.00  0.00     0.183 A 
HETATM    6  O1  UNL     1      26.138  -0.690  54.702  1.00  0.00    -0.290 OA
HETATM    7  C12 UNL     1      27.026   0.197  54.366  1.00  0.00     0.089 A 
HETATM    8  C13 UNL     1      28.371   0.284  54.621  1.00  0.00     0.038 A 
HETATM    9  C14 UNL     1      29.071   1.347  54.132  1.00  0.00     0.003 A 
HETATM   10  C15 UNL     1      28.409   2.313  53.391  1.00  0.00     0.001 A 
HETATM   11  C16 UNL     1      27.069   2.193  53.156  1.00  0.00     0.015 A 
HETATM   12  C17 UNL     1      26.351   1.145  53.632  1.00  0.00     0.015 A 
HETATM   13  C18 UNL     1      25.033   0.787  53.547  1.00  0.00     0.057 A 
ENDROOT
BRANCH   1  14
HETATM   14  N1  UNL     1      23.948   2.602  52.234  1.00  0.00    -0.389 N 
HETATM   15  H8  UNL     1      24.492   3.459  52.411  1.00  0.00     0.159 HD
BRANCH  14  16
HETATM   16  C7  UNL     1      23.150   2.957  51.086  1.00  0.00     0.121 C 
BRANCH  16  17
HETATM   17  C6  UNL     1      24.010   3.790  50.158  1.00  0.00     0.035 C 
BRANCH  17  18
HETATM   18  C5  UNL     1      25.327   3.286  49.915  1.00  0.00     0.006 A 
HETATM   19  C4  UNL     1      26.037   4.558  49.302  1.00  0.00     0.038 A 
HETATM   20  C19 UNL     1      26.434   3.263  49.586  1.00  0.00    -0.060 A 
BRANCH  19  21
HETATM   21  C3  UNL     1      27.552   4.552  48.844  1.00  0.00     0.033 A 
HETATM   22  C2  UNL     1      28.335   5.823  48.258  1.00  0.00     0.033 A 
HETATM   23  C1  UNL     1      27.236   5.855  48.584  1.00  0.00    -0.065 A 
ENDBRANCH  19  21
ENDBRANCH  17  18
ENDBRANCH  16  17
ENDBRANCH  14  16
ENDBRANCH   1  14
TORSDOF 6
ENDMDL
