ROOT
HETATM    1  C4  UNL     1      26.135   0.952  53.822  1.00  0.00     0.103 A 
HETATM    2  C5  UNL     1      25.728  -0.178  54.373  1.00  0.00     0.046 A 
HETATM    3  C6  UNL     1      24.421  -0.849  54.230  1.00  0.00     0.195 A 
HETATM    4  N1  UNL     1      23.772  -1.137  55.470  1.00  0.00    -0.178 NA
HETATM    5  N2  UNL     1      22.617  -1.622  55.643  1.00  0.00    -0.147 NA
HETATM    6  C7  UNL     1      21.716  -1.980  54.566  1.00  0.00     0.257 C 
HETATM    7  N3  UNL     1      21.599  -1.364  53.430  1.00  0.00    -0.239 NA
HETATM    8  C8  UNL     1      22.332  -0.202  53.002  1.00  0.00     0.080 C 
HETATM    9  C16 UNL     1      23.583   0.011  53.364  1.00  0.00     0.038 A 
HETATM   10  C17 UNL     1      23.994   1.247  52.724  1.00  0.00     0.116 A 
HETATM   11  C18 UNL     1      25.219   1.686  52.958  1.00  0.00     0.136 A 
HETATM   12  O4  UNL     1      25.757   2.858  52.422  1.00  0.00    -0.344 OA
HETATM   13  C19 UNL     1      25.077   3.361  51.257  1.00  0.00     0.202 C 
HETATM   14  C20 UNL     1      23.604   3.366  51.664  1.00  0.00     0.202 C 
HETATM   15  O5  UNL     1      23.220   2.017  51.883  1.00  0.00    -0.345 OA
ENDROOT
BRANCH   8  16
HETATM   16  C9  UNL     1      21.491   0.715  52.191  1.00  0.00    -0.004 A 
HETATM   17  C10 UNL     1      21.508   0.368  50.831  1.00  0.00     0.014 A 
HETATM   18  C11 UNL     1      20.730   1.055  49.901  1.00  0.00     0.004 A 
HETATM   19  C12 UNL     1      19.951   2.078  50.348  1.00  0.00     0.037 A 
HETATM   20  C13 UNL     1      19.928   2.424  51.670  1.00  0.00     0.069 A 
HETATM   21  C15 UNL     1      20.676   1.778  52.629  1.00  0.00     0.050 A 
BRANCH  20  22
HETATM   22  O3  UNL     1      19.151   3.459  52.177  1.00  0.00    -0.356 OA
HETATM   23  C14 UNL     1      17.937   3.720  51.478  1.00  0.00     0.210 C 
ENDBRANCH  20  22
ENDBRANCH   8  16
BRANCH   1  24
HETATM   24  O2  UNL     1      27.433   1.302  54.162  1.00  0.00    -0.346 OA
BRANCH  24  25
HETATM   25  C3  UNL     1      28.346   0.312  54.583  1.00  0.00     0.201 C 
BRANCH  25  26
HETATM   26  C2  UNL     1      29.611   0.272  53.787  1.00  0.00     0.193 C 
BRANCH  26  27
HETATM   27  O1  UNL     1      30.183  -0.999  53.745  1.00  0.00    -0.394 OA
HETATM   28  C1  UNL     1      29.150  -1.846  53.286  1.00  0.00     0.201 C 
ENDBRANCH  26  27
ENDBRANCH  25  26
ENDBRANCH  24  25
ENDBRANCH   1  24
TORSDOF 6
ENDMDL
