ROOT
HETATM    1  N1  UNL     1      22.352   3.241  47.475  1.00  0.00    -0.190 NA
HETATM    2  C1  UNL     1      22.301   2.644  48.457  1.00  0.00     0.120 C 
HETATM    3  C2  UNL     1      22.245   1.911  49.688  1.00  0.00     0.152 A 
HETATM    4  N2  UNL     1      21.424   0.881  49.893  1.00  0.00    -0.230 NA
HETATM    5  C3  UNL     1      21.387   0.209  51.048  1.00  0.00     0.236 A 
HETATM    6  N3  UNL     1      22.184   0.544  52.072  1.00  0.00    -0.223 NA
HETATM    7  C4  UNL     1      23.063   1.570  51.995  1.00  0.00     0.142 A 
HETATM    8  C11 UNL     1      23.031   2.196  50.779  1.00  0.00     0.051 A 
ENDROOT
BRANCH   8   9
HETATM    9  C12 UNL     1      23.938   3.301  50.548  1.00  0.00     0.035 C 
BRANCH   9  10
HETATM   10  C13 UNL     1      25.125   3.753  50.377  1.00  0.00     0.093 C 
BRANCH  10  11
HETATM   11  N5  UNL     1      26.451   3.955  50.010  1.00  0.00    -0.326 N 
HETATM   12  C14 UNL     1      26.662   4.978  49.046  1.00  0.00     0.300 C 
HETATM   13  O1  UNL     1      25.617   5.539  48.683  1.00  0.00    -0.258 OA
HETATM   14  H8  UNL     1      27.212   3.382  50.429  1.00  0.00     0.169 HD
BRANCH  12  15
HETATM   15  C15 UNL     1      27.980   5.279  48.583  1.00  0.00    -0.005 C 
HETATM   16  C16 UNL     1      29.081   5.513  48.188  1.00  0.00    -0.095 C 
BRANCH  16  17
HETATM   17  C17 UNL     1      30.437   5.777  47.709  1.00  0.00     0.124 C 
BRANCH  17  18
HETATM   18  C18 UNL     1      31.457   5.732  48.823  1.00  0.00     0.284 C 
BRANCH  18  19
HETATM   19  N6  UNL     1      32.548   4.861  48.589  1.00  0.00     0.089 N 
HETATM   20  C19 UNL     1      33.758   5.604  48.392  1.00  0.00     0.272 C 
HETATM   21  C20 UNL     1      34.671   4.949  47.375  1.00  0.00     0.030 C 
HETATM   22  C21 UNL     1      34.688   3.448  47.480  1.00  0.00     0.003 C 
HETATM   23  C22 UNL     1      33.292   2.852  47.409  1.00  0.00     0.030 C 
HETATM   24  C23 UNL     1      32.251   3.962  47.509  1.00  0.00     0.272 C 
ENDBRANCH  18  19
ENDBRANCH  17  18
ENDBRANCH  16  17
ENDBRANCH  12  15
ENDBRANCH  10  11
ENDBRANCH   9  10
ENDBRANCH   8   9
BRANCH   7  25
HETATM   25  N4  UNL     1      23.864   1.852  53.120  1.00  0.00    -0.340 N 
HETATM   26  H2  UNL     1      23.593   2.427  53.957  1.00  0.00     0.167 HD
BRANCH  25  27
HETATM   27  C5  UNL     1      25.193   1.289  53.115  1.00  0.00     0.035 A 
HETATM   28  C6  UNL     1      25.370  -0.039  52.781  1.00  0.00     0.032 A 
HETATM   29  C7  UNL     1      26.618  -0.668  52.739  1.00  0.00     0.046 A 
HETATM   30  C8  UNL     1      27.732   0.116  53.057  1.00  0.00     0.138 A 
HETATM   31  F1  UNL     1      28.976  -0.429  53.037  1.00  0.00    -0.204 F 
HETATM   32  C9  UNL     1      27.528   1.438  53.386  1.00  0.00     0.074 A 
HETATM   33 CL1  UNL     1      28.881   2.475  53.791  1.00  0.00    -0.081 Cl
HETATM   34  C10 UNL     1      26.312   2.056  53.428  1.00  0.00     0.056 A 
ENDBRANCH  25  27
ENDBRANCH   7  25
TORSDOF 9
ENDMDL
