ROOT
HETATM    1  C2  UNL     1      22.656   2.691  48.823  1.00  0.00     0.075 C 
HETATM    2  C3  UNL     1      22.715   3.793  48.094  1.00  0.00     0.013 C 
HETATM    3  C4  UNL     1      23.512   4.809  48.875  1.00  0.00     0.069 C 
HETATM    4  C5  UNL     1      24.521   3.940  49.483  1.00  0.00    -0.018 C 
HETATM    5  C6  UNL     1      25.809   3.774  49.633  1.00  0.00     0.038 C 
HETATM    6  C13 UNL     1      23.432   3.081  50.043  1.00  0.00     0.209 C 
ENDROOT
BRANCH   5   7
HETATM    7  C7  UNL     1      26.698   4.788  48.985  1.00  0.00     0.323 C 
BRANCH   7   8
HETATM    8  N1  UNL     1      26.713   6.047  49.703  1.00  0.00     0.083 N 
HETATM    9  H9  UNL     1      25.780   6.200  50.160  1.00  0.00     0.313 HD
HETATM   10  H10 UNL     1      26.820   6.870  49.052  1.00  0.00     0.313 HD
ENDBRANCH   7   8
ENDBRANCH   5   7
BRANCH   5  11
HETATM   11  N2  UNL     1      26.637   2.860  50.260  1.00  0.00    -0.388 N 
HETATM   12  H11 UNL     1      27.129   2.472  49.428  1.00  0.00     0.159 HD
BRANCH  11  13
HETATM   13  C8  UNL     1      26.865   2.459  51.613  1.00  0.00     0.147 C 
BRANCH  13  14
HETATM   14  C9  UNL     1      26.513   1.019  51.831  1.00  0.00    -0.003 C 
HETATM   15  C10 UNL     1      27.173   0.149  52.578  1.00  0.00    -0.058 C 
HETATM   16  C11 UNL     1      28.393   0.371  53.364  1.00  0.00     0.045 C 
BRANCH  15  17
HETATM   17  C12 UNL     1      26.571  -1.234  52.600  1.00  0.00     0.256 C 
HETATM   18  F1  UNL     1      25.866  -1.378  53.765  1.00  0.00    -0.251 F 
ENDBRANCH  15  17
ENDBRANCH  13  14
ENDBRANCH  11  13
ENDBRANCH   5  11
BRANCH   6  19
HETATM   19  O2  UNL     1      22.710   3.869  50.893  1.00  0.00    -0.373 OA
BRANCH  19  20
HETATM   20  C14 UNL     1      22.167   3.298  52.003  1.00  0.00     0.199 C 
BRANCH  20  21
HETATM   21  C15 UNL     1      22.942   2.196  52.638  1.00  0.00     0.298 C 
BRANCH  21  22
HETATM   22  N3  UNL     1      22.184   0.976  52.604  1.00  0.00     0.090 N 
HETATM   23  C16 UNL     1      22.866  -0.183  53.050  1.00  0.00     0.272 C 
HETATM   24  C17 UNL     1      22.267  -0.567  54.355  1.00  0.00     0.032 C 
HETATM   25  C18 UNL     1      20.964   0.134  54.439  1.00  0.00     0.032 C 
HETATM   26  C19 UNL     1      20.933   1.065  53.269  1.00  0.00     0.272 C 
ENDBRANCH  21  22
ENDBRANCH  20  21
ENDBRANCH  19  20
ENDBRANCH   6  19
BRANCH   1  27
HETATM   27  O1  UNL     1      21.986   1.521  48.409  1.00  0.00    -0.358 OA
HETATM   28  C1  UNL     1      20.979   0.942  49.197  1.00  0.00     0.209 C 
ENDBRANCH   1  27
TORSDOF 11
ENDMDL
