ROOT
HETATM    1  C2  UNL     1      26.871   7.030  48.211  1.00  0.00     0.068 A 
HETATM    2  C3  UNL     1      27.977   6.251  48.119  1.00  0.00     0.037 A 
HETATM    3  C4  UNL     1      27.933   4.968  48.597  1.00  0.00     0.016 A 
HETATM    4  C5  UNL     1      26.810   4.443  49.167  1.00  0.00    -0.010 A 
HETATM    5  C6  UNL     1      25.608   5.182  49.307  1.00  0.00    -0.033 A 
HETATM    6  C7  UNL     1      25.725   6.488  48.795  1.00  0.00     0.045 A 
HETATM    7  C8  UNL     1      24.210   5.018  49.821  1.00  0.00     0.086 C 
HETATM    8  C10 UNL     1      24.157   3.831  50.782  1.00  0.00     0.068 C 
HETATM    9  C11 UNL     1      22.777   3.543  51.311  1.00  0.00     0.025 C 
HETATM   10 CL1  UNL     1      21.039   3.504  51.181  1.00  0.00    -0.088 Cl
HETATM   11  C12 UNL     1      23.010   2.980  52.503  1.00  0.00     0.011 C 
HETATM   12  C13 UNL     1      23.803   1.906  52.440  1.00  0.00     0.123 C 
HETATM   13  N1  UNL     1      25.205   2.007  52.152  1.00  0.00    -0.288 N 
HETATM   14  N2  UNL     1      26.611   2.088  51.819  1.00  0.00    -0.172 N 
HETATM   15  N3  UNL     1      26.786   3.241  51.011  1.00  0.00    -0.163 NA
HETATM   16  C20 UNL     1      26.580   3.120  49.711  1.00  0.00     0.152 C 
HETATM   17  H12 UNL     1      25.433   2.489  53.084  1.00  0.00     0.188 HD
ENDROOT
BRANCH  14  18
HETATM   18  C14 UNL     1      27.366   1.043  52.355  1.00  0.00     0.110 A 
HETATM   19  C15 UNL     1      27.116  -0.322  52.355  1.00  0.00     0.038 A 
HETATM   20  C16 UNL     1      27.961  -1.216  52.947  1.00  0.00     0.026 A 
HETATM   21  C17 UNL     1      29.105  -0.767  53.571  1.00  0.00     0.036 A 
HETATM   22 CL2  UNL     1      30.156  -1.966  54.318  1.00  0.00    -0.084 Cl
HETATM   23  C18 UNL     1      29.395   0.590  53.594  1.00  0.00     0.062 A 
HETATM   24  C19 UNL     1      28.520   1.484  52.984  1.00  0.00     0.097 A 
BRANCH  24  25
HETATM   25  O3  UNL     1      28.912   2.804  53.074  1.00  0.00    -0.358 OA
HETATM   26  H16 UNL     1      28.495   3.510  52.477  1.00  0.00     0.217 HD
ENDBRANCH  24  25
ENDBRANCH  14  18
BRANCH   7  27
HETATM   27  C9  UNL     1      23.775   6.240  50.549  1.00  0.00     0.240 C 
HETATM   28  O2  UNL     1      22.845   7.013  50.788  1.00  0.00    -0.306 OA
ENDBRANCH   7  27
BRANCH   1  29
HETATM   29  O1  UNL     1      26.953   8.310  47.719  1.00  0.00    -0.356 OA
HETATM   30  C1  UNL     1      28.064   9.127  47.960  1.00  0.00     0.210 C 
ENDBRANCH   1  29
TORSDOF 4
ENDMDL
