ROOT
HETATM    1  C4  UNL     1      21.629   2.642  51.659  1.00  0.00     0.245 C 
HETATM    2  C5  UNL     1      22.814   1.962  51.093  1.00  0.00     0.009 C 
HETATM    3  C6  UNL     1      24.086   1.722  51.501  1.00  0.00     0.012 C 
HETATM    4  C7  UNL     1      24.830   2.058  52.724  1.00  0.00    -0.011 C 
HETATM    5  C8  UNL     1      25.762   1.062  53.183  1.00  0.00    -0.022 A 
HETATM    6  C9  UNL     1      25.808  -0.140  52.518  1.00  0.00     0.031 A 
HETATM    7  C10 UNL     1      26.685  -1.131  52.892  1.00  0.00     0.117 A 
HETATM    8  N2  UNL     1      27.543  -0.986  53.921  1.00  0.00    -0.273 NA
HETATM    9  C11 UNL     1      27.538   0.174  54.606  1.00  0.00     0.117 A 
HETATM   10  C12 UNL     1      26.649   1.142  54.205  1.00  0.00     0.031 A 
HETATM   11  C13 UNL     1      24.696   3.218  53.391  1.00  0.00     0.095 C 
HETATM   12  N3  UNL     1      23.920   4.437  53.260  1.00  0.00    -0.398 N 
HETATM   13  C14 UNL     1      23.074   4.713  52.103  1.00  0.00     0.121 C 
HETATM   14  C15 UNL     1      21.769   4.042  52.085  1.00  0.00     0.059 C 
HETATM   15  H13 UNL     1      24.076   5.046  54.101  1.00  0.00     0.158 HD
ENDROOT
BRANCH   1  16
HETATM   16  N1  UNL     1      20.961   1.909  52.705  1.00  0.00     0.095 NA
HETATM   17  H4  UNL     1      21.695   1.524  53.361  1.00  0.00     0.317 HD
BRANCH  16  18
HETATM   18  C3  UNL     1      20.024   0.925  52.338  1.00  0.00     0.300 C 
BRANCH  18  19
HETATM   19  C2  UNL     1      19.848  -0.179  53.301  1.00  0.00     0.046 C 
HETATM   20  C1  UNL     1      20.781  -1.002  53.836  1.00  0.00     0.155 C 
HETATM   21  F1  UNL     1      20.517  -2.013  54.737  1.00  0.00    -0.205 F 
BRANCH  20  22
HETATM   22  C16 UNL     1      22.256  -1.159  53.711  1.00  0.00     0.414 C 
HETATM   23  F2  UNL     1      22.904  -0.101  54.322  1.00  0.00    -0.207 F 
HETATM   24  F3  UNL     1      22.659  -1.144  52.379  1.00  0.00    -0.207 F 
ENDBRANCH  20  22
ENDBRANCH  18  19
ENDBRANCH  16  18
ENDBRANCH   1  16
TORSDOF 4
ENDMDL
