ROOT
HETATM    1  C8  UNL     1      22.659   1.537  50.658  1.00  0.00     0.045 C 
HETATM    2  C9  UNL     1      22.680   2.838  50.889  1.00  0.00    -0.015 C 
HETATM    3  C10 UNL     1      23.835   2.826  49.946  1.00  0.00     0.033 C 
HETATM    4  C11 UNL     1      23.683   2.956  48.649  1.00  0.00     0.011 C 
HETATM    5  C12 UNL     1      22.425   2.971  48.220  1.00  0.00     0.160 C 
HETATM    6  O2  UNL     1      22.456   4.247  48.735  1.00  0.00    -0.378 OA
HETATM    7  C13 UNL     1      22.774   5.406  48.023  1.00  0.00     0.207 C 
HETATM    8  C14 UNL     1      23.771   6.177  48.785  1.00  0.00    -0.021 A 
HETATM    9  C15 UNL     1      24.575   7.002  47.986  1.00  0.00     0.052 A 
HETATM   10  C16 UNL     1      25.560   7.762  48.607  1.00  0.00     0.117 A 
HETATM   11  F1  UNL     1      26.357   8.572  47.841  1.00  0.00    -0.206 F 
HETATM   12  C17 UNL     1      25.822   7.779  49.959  1.00  0.00     0.043 A 
HETATM   13  C18 UNL     1      25.019   6.960  50.716  1.00  0.00     0.015 A 
HETATM   14  C19 UNL     1      24.049   6.208  50.127  1.00  0.00    -0.026 A 
HETATM   15  C20 UNL     1      23.181   5.334  50.856  1.00  0.00     0.036 C 
HETATM   16  C21 UNL     1      22.631   4.216  51.208  1.00  0.00     0.044 C 
HETATM   17 CL1  UNL     1      21.434   3.835  52.404  1.00  0.00    -0.083 Cl
ENDROOT
BRANCH   1  18
HETATM   18  C7  UNL     1      21.573   0.940  51.426  1.00  0.00     0.071 A 
HETATM   19  C6  UNL     1      21.666   0.194  52.581  1.00  0.00     0.020 A 
HETATM   20  C5  UNL     1      23.072   0.156  52.982  1.00  0.00     0.029 C 
HETATM   21  C23 UNL     1      20.606  -0.385  53.241  1.00  0.00     0.072 A 
HETATM   22  C4  UNL     1      23.630  -0.515  53.996  1.00  0.00     0.012 C 
HETATM   23  C25 UNL     1      22.903  -1.387  54.957  1.00  0.00     0.210 C 
HETATM   24  O3  UNL     1      21.788  -1.984  54.429  1.00  0.00    -0.381 OA
HETATM   25  C24 UNL     1      20.636  -1.204  54.485  1.00  0.00     0.228 C 
HETATM   26  N2  UNL     1      19.369  -0.224  52.740  1.00  0.00    -0.243 NA
HETATM   27  C22 UNL     1      19.260   0.498  51.620  1.00  0.00     0.234 A 
HETATM   28  N1  UNL     1      20.285   1.059  50.979  1.00  0.00    -0.241 NA
BRANCH  22  29
HETATM   29  C3  UNL     1      25.057  -0.348  54.136  1.00  0.00     0.157 C 
HETATM   30  O1  UNL     1      25.649  -0.928  55.056  1.00  0.00    -0.293 OA
BRANCH  29  31
HETATM   31  C2  UNL     1      25.889   0.484  53.242  1.00  0.00     0.079 C 
HETATM   32  C1  UNL     1      26.691  -0.372  52.284  1.00  0.00     0.013 C 
ENDBRANCH  29  31
ENDBRANCH  22  29
ENDBRANCH   1  18
TORSDOF 3
ENDMDL
