ROOT
HETATM    1  N1  UNL     1      25.290   4.790  49.565  1.00  0.00    -0.375 N 
HETATM    2  C3  UNL     1      25.465   3.325  49.577  1.00  0.00     0.162 C 
HETATM    3  C4  UNL     1      25.469   2.823  50.979  1.00  0.00    -0.029 A 
HETATM    4  C5  UNL     1      26.784   2.600  51.309  1.00  0.00     0.051 A 
HETATM    5  C6  UNL     1      27.235   2.133  52.512  1.00  0.00     0.125 A 
HETATM    6  C7  UNL     1      26.253   1.866  53.475  1.00  0.00     0.104 A 
HETATM    7  C9  UNL     1      24.918   2.075  53.188  1.00  0.00     0.049 A 
HETATM    8  C10 UNL     1      24.502   2.555  51.940  1.00  0.00    -0.030 A 
HETATM    9  C11 UNL     1      23.032   2.669  51.949  1.00  0.00     0.159 C 
HETATM   10  N3  UNL     1      22.665   4.001  51.593  1.00  0.00    -0.384 N 
HETATM   11  C12 UNL     1      23.026   5.197  50.912  1.00  0.00     0.055 A 
HETATM   12  C13 UNL     1      22.088   6.169  51.171  1.00  0.00     0.031 A 
HETATM   13  C14 UNL     1      22.196   7.434  50.625  1.00  0.00     0.002 A 
HETATM   14  C15 UNL     1      23.257   7.705  49.817  1.00  0.00     0.002 A 
HETATM   15  C16 UNL     1      24.189   6.724  49.565  1.00  0.00     0.031 A 
HETATM   16  C17 UNL     1      24.119   5.430  50.098  1.00  0.00     0.057 A 
HETATM   17  H17 UNL     1      21.718   4.142  52.027  1.00  0.00     0.160 HD
ENDROOT
BRANCH   5  18
HETATM   18  O1  UNL     1      28.532   1.887  52.912  1.00  0.00    -0.264 OA
BRANCH  18  19
HETATM   19  N2  UNL     1      29.044   2.569  53.981  1.00  0.00    -0.209 NA
HETATM   20  H9  UNL     1      29.388   1.874  54.681  1.00  0.00     0.150 HD
HETATM   21  H10 UNL     1      28.190   3.031  54.432  1.00  0.00     0.150 HD
ENDBRANCH  18  19
ENDBRANCH   5  18
BRANCH   6  22
HETATM   22  O2  UNL     1      26.609   1.389  54.728  1.00  0.00    -0.353 OA
HETATM   23  C8  UNL     1      26.350   0.056  55.060  1.00  0.00     0.210 C 
ENDBRANCH   6  22
BRANCH   1  24
HETATM   24  C2  UNL     1      26.313   5.636  49.000  1.00  0.00     0.119 C 
HETATM   25  C1  UNL     1      27.600   5.018  48.641  1.00  0.00     0.026 C 
ENDBRANCH   1  24
TORSDOF 4
ENDMDL
