ROOT
HETATM    1  N2  UNL     1      22.328  -0.880  55.392  1.00  0.00    -0.237 NA
HETATM    2  C8  UNL     1      21.412  -1.334  54.586  1.00  0.00     0.208 C 
ENDROOT
BRANCH   1   3
HETATM    3  C7  UNL     1      23.469  -1.646  55.744  1.00  0.00     0.238 C 
HETATM    4  N1  UNL     1      24.698  -1.517  55.453  1.00  0.00    -0.200 NA
BRANCH   4   5
HETATM    5  C6  UNL     1      25.278  -0.504  54.650  1.00  0.00     0.269 C 
HETATM    6  O1  UNL     1      24.726   0.166  53.539  1.00  0.00    -0.289 OA
HETATM    7  C5  UNL     1      25.407   0.515  52.354  1.00  0.00     0.142 C 
HETATM    8  C4  UNL     1      26.734   0.582  52.165  1.00  0.00     0.004 C 
HETATM    9  C3  UNL     1      27.874   0.321  53.103  1.00  0.00     0.029 C 
HETATM   10  C15 UNL     1      27.408   0.793  54.480  1.00  0.00     0.161 C 
HETATM   11  N4  UNL     1      26.491  -0.182  55.031  1.00  0.00    -0.248 NA
BRANCH   9  12
HETATM   12  C2  UNL     1      28.098  -1.182  53.109  1.00  0.00     0.006 C 
HETATM   13  C1  UNL     1      29.509  -1.550  53.441  1.00  0.00     0.006 C 
ENDBRANCH   9  12
ENDBRANCH   4   5
ENDBRANCH   1   3
BRANCH   2  14
HETATM   14  N3  UNL     1      20.304  -0.451  54.313  1.00  0.00    -0.351 N 
HETATM   15  H11 UNL     1      19.702  -0.222  55.137  1.00  0.00     0.166 HD
BRANCH  14  16
HETATM   16  C9  UNL     1      20.230  -0.049  52.929  1.00  0.00     0.034 A 
HETATM   17  C10 UNL     1      21.430   0.398  52.400  1.00  0.00     0.032 A 
HETATM   18  C11 UNL     1      21.386   0.806  51.073  1.00  0.00     0.046 A 
HETATM   19  C12 UNL     1      20.211   0.761  50.349  1.00  0.00     0.138 A 
HETATM   20  F1  UNL     1      20.191   1.173  49.036  1.00  0.00    -0.204 F 
HETATM   21  C13 UNL     1      19.044   0.308  50.920  1.00  0.00     0.074 A 
HETATM   22 CL1  UNL     1      17.528   0.232  50.041  1.00  0.00    -0.081 Cl
HETATM   23  C14 UNL     1      19.021  -0.116  52.249  1.00  0.00     0.056 A 
ENDBRANCH  14  16
ENDBRANCH   2  14
TORSDOF 5
ENDMDL
