ROOT
HETATM    1  C2  UNL     1      22.788   2.732  50.752  1.00  0.00     0.102 C 
HETATM    2  C3  UNL     1      22.250   3.352  49.685  1.00  0.00     0.074 C 
HETATM    3  C4  UNL     1      22.444   4.813  49.855  1.00  0.00     0.194 A 
HETATM    4  N2  UNL     1      21.489   5.715  49.349  1.00  0.00    -0.240 NA
HETATM    5  C11 UNL     1      21.172   6.551  50.273  1.00  0.00     0.230 A 
HETATM    6  N3  UNL     1      21.895   6.256  51.490  1.00  0.00    -0.242 NA
HETATM    7  C12 UNL     1      22.655   5.195  51.235  1.00  0.00     0.093 A 
HETATM    8  C13 UNL     1      23.351   4.483  52.300  1.00  0.00     0.071 C 
HETATM    9  C14 UNL     1      23.378   3.143  52.031  1.00  0.00     0.103 C 
ENDROOT
BRANCH   3  10
HETATM   10  N1  UNL     1      23.680   5.158  49.055  1.00  0.00    -0.351 N 
HETATM   11  H5  UNL     1      23.245   5.296  48.092  1.00  0.00     0.163 HD
BRANCH  10  12
HETATM   12  C5  UNL     1      25.063   5.408  48.849  1.00  0.00     0.069 A 
HETATM   13  C6  UNL     1      25.579   6.616  48.361  1.00  0.00     0.034 A 
HETATM   14  C7  UNL     1      26.934   6.668  48.219  1.00  0.00     0.021 A 
HETATM   15  C8  UNL     1      27.734   5.616  48.529  1.00  0.00     0.014 A 
HETATM   16 BR1  UNL     1      29.576   5.985  48.226  1.00  0.00    -0.051 Br
HETATM   17  C9  UNL     1      27.261   4.417  49.009  1.00  0.00     0.063 A 
HETATM   18  C10 UNL     1      25.900   4.361  49.154  1.00  0.00     0.144 A 
HETATM   19  F1  UNL     1      25.637   3.120  49.620  1.00  0.00    -0.204 F 
ENDBRANCH  10  12
ENDBRANCH   3  10
BRANCH   1  20
HETATM   20  O1  UNL     1      22.749   1.316  50.729  1.00  0.00    -0.353 OA
HETATM   21  C1  UNL     1      21.542   0.603  50.918  1.00  0.00     0.210 C 
ENDBRANCH   1  20
BRANCH   9  22
HETATM   22  O2  UNL     1      23.943   2.282  52.954  1.00  0.00    -0.348 OA
BRANCH  22  23
HETATM   23  C15 UNL     1      25.196   2.381  53.551  1.00  0.00     0.180 C 
BRANCH  23  24
HETATM   24  C16 UNL     1      26.211   1.440  52.935  1.00  0.00     0.013 C 
HETATM   25  C17 UNL     1      27.562   2.139  53.022  1.00  0.00     0.037 C 
HETATM   26  C18 UNL     1      28.578   1.198  53.671  1.00  0.00     0.272 C 
HETATM   27  N4  UNL     1      28.522  -0.116  53.093  1.00  0.00     0.084 N 
HETATM   28  C19 UNL     1      29.559  -0.916  53.681  1.00  0.00     0.309 C 
HETATM   29  C20 UNL     1      27.245  -0.755  53.157  1.00  0.00     0.272 C 
HETATM   30  C21 UNL     1      26.256   0.197  53.799  1.00  0.00     0.037 C 
ENDBRANCH  23  24
ENDBRANCH  22  23
ENDBRANCH   9  22
TORSDOF 6
ENDMDL
