ROOT
HETATM    1  C4  UNL     1      25.124  -0.703  54.280  1.00  0.00     0.036 A 
HETATM    2  C5  UNL     1      24.457  -1.293  55.333  1.00  0.00     0.032 A 
HETATM    3  C6  UNL     1      23.089  -1.280  55.419  1.00  0.00     0.035 A 
HETATM    4  C7  UNL     1      22.364  -0.660  54.429  1.00  0.00     0.072 A 
HETATM    5  N2  UNL     1      21.019  -0.679  54.569  1.00  0.00    -0.241 NA
HETATM    6  C8  UNL     1      20.258  -0.087  53.630  1.00  0.00     0.236 A 
HETATM    7  N3  UNL     1      20.887   0.488  52.606  1.00  0.00    -0.224 NA
HETATM    8  C9  UNL     1      22.196   0.559  52.383  1.00  0.00     0.142 A 
HETATM    9  C16 UNL     1      22.945  -0.044  53.341  1.00  0.00     0.041 A 
HETATM   10  C17 UNL     1      24.318  -0.108  53.339  1.00  0.00     0.047 A 
ENDROOT
BRANCH   8  11
HETATM   11  N4  UNL     1      22.790   1.182  51.282  1.00  0.00    -0.340 N 
HETATM   12  H8  UNL     1      22.915   0.677  50.382  1.00  0.00     0.167 HD
BRANCH  11  13
HETATM   13  C10 UNL     1      23.298   2.499  51.155  1.00  0.00     0.035 A 
HETATM   14  C11 UNL     1      22.692   3.584  51.745  1.00  0.00     0.029 A 
HETATM   15  C12 UNL     1      23.144   4.882  51.654  1.00  0.00     0.004 A 
HETATM   16  C13 UNL     1      24.284   5.155  50.930  1.00  0.00     0.019 A 
HETATM   17  C14 UNL     1      24.927   4.106  50.321  1.00  0.00     0.013 A 
HETATM   18 BR1  UNL     1      26.507   4.413  49.305  1.00  0.00    -0.051 Br
HETATM   19  C15 UNL     1      24.416   2.838  50.456  1.00  0.00     0.048 A 
ENDBRANCH  11  13
ENDBRANCH   8  11
BRANCH   1  20
HETATM   20  N1  UNL     1      26.537  -0.774  54.289  1.00  0.00    -0.324 N 
HETATM   21  C3  UNL     1      27.511   0.209  54.557  1.00  0.00     0.244 C 
HETATM   22  O1  UNL     1      27.115   1.351  54.840  1.00  0.00    -0.268 OA
HETATM   23  H4  UNL     1      26.996  -1.706  54.059  1.00  0.00     0.169 HD
BRANCH  21  24
HETATM   24  C2  UNL     1      28.944  -0.052  54.517  1.00  0.00     0.064 C 
HETATM   25  C1  UNL     1      29.592  -0.821  53.639  1.00  0.00     0.017 C 
ENDBRANCH  21  24
ENDBRANCH   1  20
TORSDOF 4
ENDMDL
