ROOT
HETATM    1  C4  UNL     1      23.865   2.695  52.331  1.00  0.00     0.062 A 
HETATM    2  C5  UNL     1      22.494   2.751  52.246  1.00  0.00     0.043 A 
HETATM    3  C6  UNL     1      21.657   1.714  52.658  1.00  0.00    -0.003 A 
HETATM    4  C9  UNL     1      22.284   0.582  53.173  1.00  0.00     0.078 A 
HETATM    5  C11 UNL     1      23.683   0.541  53.251  1.00  0.00     0.069 A 
HETATM    6  C12 UNL     1      24.498   1.602  52.829  1.00  0.00     0.059 A 
ENDROOT
BRANCH   1   7
HETATM    7  N2  UNL     1      24.664   3.753  51.885  1.00  0.00    -0.324 N 
HETATM    8  C3  UNL     1      25.062   3.837  50.528  1.00  0.00     0.241 C 
HETATM    9  O1  UNL     1      24.708   2.957  49.672  1.00  0.00    -0.271 OA
HETATM   10  H5  UNL     1      25.087   4.583  52.396  1.00  0.00     0.169 HD
BRANCH   8  11
HETATM   11  C2  UNL     1      25.902   4.891  49.906  1.00  0.00     0.250 C 
BRANCH  11  12
HETATM   12  N1  UNL     1      26.918   4.325  49.070  1.00  0.00    -0.303 NA
HETATM   13  C1  UNL     1      27.776   5.158  48.568  1.00  0.00     0.143 C 
ENDBRANCH  11  12
ENDBRANCH   8  11
ENDBRANCH   1   7
BRANCH   6  14
HETATM   14  N4  UNL     1      25.842   1.180  53.034  1.00  0.00    -0.382 N 
HETATM   15  C13 UNL     1      26.354   0.544  51.826  1.00  0.00     0.150 C 
BRANCH  14  16
HETATM   16  C14 UNL     1      26.625   1.242  54.204  1.00  0.00     0.152 C 
BRANCH  16  17
HETATM   17  C15 UNL     1      27.357   0.127  54.778  1.00  0.00     0.291 C 
BRANCH  17  18
HETATM   18  N5  UNL     1      28.779   0.107  54.829  1.00  0.00     0.081 N 
HETATM   19  C16 UNL     1      29.286  -0.838  53.771  1.00  0.00     0.309 C 
HETATM   20  C17 UNL     1      29.298   1.386  54.317  1.00  0.00     0.309 C 
ENDBRANCH  17  18
ENDBRANCH  16  17
ENDBRANCH  14  16
ENDBRANCH   6  14
BRANCH   3  21
HETATM   21  C7  UNL     1      20.192   1.895  52.519  1.00  0.00     0.188 C 
BRANCH  21  22
HETATM   22  N3  UNL     1      19.803   3.258  52.398  1.00  0.00    -0.308 NA
HETATM   23  C8  UNL     1      18.929   3.571  51.540  1.00  0.00     0.142 C 
ENDBRANCH  21  22
ENDBRANCH   3  21
BRANCH   4  24
HETATM   24  O2  UNL     1      21.356  -0.370  53.543  1.00  0.00    -0.355 OA
HETATM   25  C10 UNL     1      21.502  -1.422  54.429  1.00  0.00     0.210 C 
ENDBRANCH   4  24
TORSDOF 10
ENDMDL
