ROOT
HETATM    1  N2  UNL     1      24.672   0.129  53.013  1.00  0.00    -0.254 N 
HETATM    2  N3  UNL     1      23.501  -0.578  53.258  1.00  0.00    -0.183 NA
HETATM    3  C5  UNL     1      22.222  -0.265  53.274  1.00  0.00     0.146 C 
HETATM    4  C6  UNL     1      21.882   1.008  52.509  1.00  0.00    -0.035 C 
HETATM    5  C7  UNL     1      20.762   1.730  52.885  1.00  0.00     0.008 C 
HETATM    6  C8  UNL     1      20.341   3.019  52.273  1.00  0.00    -0.002 C 
HETATM    7  C9  UNL     1      21.010   3.692  51.395  1.00  0.00    -0.006 C 
HETATM    8  C10 UNL     1      21.698   4.514  50.400  1.00  0.00     0.172 C 
HETATM    9  N4  UNL     1      22.457   3.820  49.359  1.00  0.00    -0.289 NA
HETATM   10  C11 UNL     1      23.715   3.315  49.646  1.00  0.00     0.381 A 
HETATM   11  C12 UNL     1      24.740   3.265  51.042  1.00  0.00     0.304 A 
HETATM   12  N5  UNL     1      25.001   2.291  51.770  1.00  0.00    -0.185 NA
HETATM   13  C13 UNL     1      24.499   1.249  52.236  1.00  0.00     0.137 A 
HETATM   14  C14 UNL     1      23.701   2.024  51.424  1.00  0.00     0.261 A 
HETATM   15  N6  UNL     1      23.765   3.119  50.748  1.00  0.00     0.054 N 
HETATM   16  C15 UNL     1      24.492   4.170  50.362  1.00  0.00     0.304 A 
HETATM   17  C16 UNL     1      22.417   1.350  51.185  1.00  0.00     0.105 C 
ENDROOT
BRANCH   1  18
HETATM   18  C4  UNL     1      26.057   0.255  53.250  1.00  0.00     0.114 C 
HETATM   19  C3  UNL     1      26.492  -0.058  54.654  1.00  0.00     0.047 C 
HETATM   20  C2  UNL     1      28.012   0.254  54.651  1.00  0.00     0.118 C 
HETATM   21  N1  UNL     1      28.645  -0.591  53.715  1.00  0.00    -0.416 N 
HETATM   22  C1  UNL     1      30.013  -0.711  53.630  1.00  0.00     0.143 C 
HETATM   23  C18 UNL     1      27.773  -1.473  53.034  1.00  0.00     0.118 C 
HETATM   24  C17 UNL     1      26.767  -0.665  52.274  1.00  0.00     0.047 C 
ENDBRANCH   1  18
BRANCH  16  25
HETATM   25  N7  UNL     1      25.759   4.837  50.435  1.00  0.00    -0.393 N 
HETATM   26  H16 UNL     1      25.804   5.415  51.338  1.00  0.00     0.152 HD
HETATM   27  H17 UNL     1      26.667   4.934  49.853  1.00  0.00     0.152 HD
ENDBRANCH  16  25
TORSDOF 3
ENDMDL
