ROOT
HETATM    1  C2  UNL     1      24.844   1.342  52.808  1.00  0.00     0.197 C 
HETATM    2  C3  UNL     1      24.486   2.703  52.920  1.00  0.00    -0.102 C 
HETATM    3  C4  UNL     1      24.168   3.837  53.001  1.00  0.00     0.310 A 
HETATM    4  N1  UNL     1      23.770   5.176  53.080  1.00  0.00     0.138 N 
HETATM    5  C5  UNL     1      23.822   4.816  51.653  1.00  0.00     0.302 A 
HETATM    6  C6  UNL     1      23.946   4.521  50.346  1.00  0.00     0.089 C 
HETATM    7  N2  UNL     1      22.892   3.722  49.707  1.00  0.00    -0.280 NA
HETATM    8  C13 UNL     1      22.693   2.514  50.215  1.00  0.00     0.166 C 
HETATM    9  C14 UNL     1      23.045   1.357  51.259  1.00  0.00     0.083 C 
HETATM   10  C15 UNL     1      23.604   0.511  52.275  1.00  0.00     0.148 C 
HETATM   11  O2  UNL     1      21.771   1.108  50.525  1.00  0.00    -0.327 OA
HETATM   12  C16 UNL     1      20.755   2.006  51.248  1.00  0.00     0.316 C 
HETATM   13  N3  UNL     1      21.166   3.136  51.615  1.00  0.00    -0.410 NA
HETATM   14  P1  UNL     1      21.944   4.542  51.985  1.00  0.00     0.107 P 
HETATM   15  H5  UNL     1      23.940   4.744  53.985  1.00  0.00     0.320 HD
HETATM   16  H13 UNL     1      21.264   5.722  51.488  1.00  0.00     0.099 HD
ENDROOT
BRANCH   6  17
HETATM   17  C7  UNL     1      25.199   4.924  49.692  1.00  0.00    -0.007 A 
HETATM   18  C8  UNL     1      26.245   4.015  49.563  1.00  0.00     0.013 A 
HETATM   19  C9  UNL     1      27.441   4.358  48.958  1.00  0.00     0.002 A 
HETATM   20  C10 UNL     1      27.593   5.636  48.470  1.00  0.00     0.019 A 
HETATM   21  C11 UNL     1      26.569   6.556  48.584  1.00  0.00     0.011 A 
HETATM   22 BR1  UNL     1      26.743   8.334  47.924  1.00  0.00    -0.051 Br
HETATM   23  C12 UNL     1      25.376   6.201  49.194  1.00  0.00     0.032 A 
ENDBRANCH   6  17
BRANCH   1  24
HETATM   24  O1  UNL     1      25.041   0.786  54.060  1.00  0.00    -0.379 OA
HETATM   25  C1  UNL     1      25.579  -0.485  53.888  1.00  0.00     0.203 C 
ENDBRANCH   1  24
TORSDOF 2
ENDMDL
