ROOT
HETATM    1  C4  UNL     1      24.568  -0.030  53.282  1.00  0.00     0.072 C 
HETATM    2  N3  UNL     1      24.991   0.670  52.335  1.00  0.00    -0.182 NA
HETATM    3  N4  UNL     1      26.078   1.206  51.888  1.00  0.00    -0.305 N 
HETATM    4  C5  UNL     1      26.792   2.482  51.583  1.00  0.00     0.206 C 
HETATM    5  S1  UNL     1      25.810   3.339  50.313  1.00  0.00    -0.182 SA
HETATM    6  C6  UNL     1      24.062   3.454  50.872  1.00  0.00     0.028 A 
HETATM    7  C7  UNL     1      24.175   3.792  52.171  1.00  0.00     0.017 A 
HETATM    8  C8  UNL     1      23.018   3.063  52.356  1.00  0.00     0.009 A 
HETATM    9  C9  UNL     1      23.273   2.966  51.021  1.00  0.00     0.007 A 
HETATM   10  N5  UNL     1      22.296   2.055  51.334  1.00  0.00     0.000 N 
HETATM   11  C10 UNL     1      21.653   1.398  50.369  1.00  0.00     0.209 A 
HETATM   12  C11 UNL     1      21.022   0.750  49.332  1.00  0.00    -0.001 A 
HETATM   13  C12 UNL     1      21.997   1.653  49.020  1.00  0.00     0.065 A 
HETATM   14  C13 UNL     1      22.698   2.364  49.965  1.00  0.00     0.034 A 
HETATM   15  C14 UNL     1      23.867   3.065  49.579  1.00  0.00     0.069 A 
HETATM   16  N6  UNL     1      21.726   0.624  51.601  1.00  0.00     0.177 N 
HETATM   17  N7  UNL     1      21.809  -0.126  52.810  1.00  0.00    -0.121 NA
HETATM   18  C15 UNL     1      23.093  -0.198  53.212  1.00  0.00     0.309 C 
HETATM   19  H8  UNL     1      26.634   0.348  51.682  1.00  0.00     0.183 HD
HETATM   20  H16 UNL     1      21.001  -0.115  51.803  1.00  0.00     0.342 HD
ENDROOT
BRANCH   1  21
HETATM   21  C3  UNL     1      24.877  -0.769  54.540  1.00  0.00     0.110 C 
BRANCH  21  22
HETATM   22  C2  UNL     1      26.043  -0.265  55.279  1.00  0.00     0.117 C 
HETATM   23  N2  UNL     1      27.109  -0.492  54.559  1.00  0.00    -0.196 NA
BRANCH  23  24
HETATM   24  N1  UNL     1      28.393  -0.142  54.958  1.00  0.00    -0.319 N 
HETATM   25  C1  UNL     1      29.119   0.903  54.235  1.00  0.00     0.169 C 
HETATM   26  H4  UNL     1      28.634  -0.757  55.789  1.00  0.00     0.181 HD
ENDBRANCH  23  24
ENDBRANCH  21  22
ENDBRANCH   1  21
TORSDOF 6
ENDMDL
