ROOT
HETATM    1  N2  UNL     1      26.849   0.103  53.519  1.00  0.00    -0.344 N 
HETATM    2  C1  UNL     1      27.075   0.194  52.106  1.00  0.00     0.147 C 
HETATM    3  C2  UNL     1      26.691   1.502  51.555  1.00  0.00     0.048 C 
HETATM    4  C3  UNL     1      26.490   2.606  50.877  1.00  0.00    -0.049 C 
HETATM    5  C7  UNL     1      25.266   3.391  51.105  1.00  0.00    -0.061 A 
HETATM    6  C8  UNL     1      24.179   4.152  51.264  1.00  0.00     0.048 A 
HETATM    7  C9  UNL     1      22.835   4.745  51.698  1.00  0.00     0.177 C 
HETATM    8  O1  UNL     1      22.259   3.805  52.613  1.00  0.00    -0.388 OA
HETATM    9  C10 UNL     1      21.741   2.807  51.821  1.00  0.00     0.193 C 
HETATM   10  C11 UNL     1      21.443   1.493  52.444  1.00  0.00     0.193 C 
HETATM   11  O2  UNL     1      22.636   0.996  52.853  1.00  0.00    -0.389 OA
HETATM   12  C12 UNL     1      22.895  -0.301  53.008  1.00  0.00     0.175 C 
HETATM   13  C13 UNL     1      24.419  -0.463  53.240  1.00  0.00     0.109 C 
HETATM   14  C14 UNL     1      25.444   0.444  53.350  1.00  0.00     0.034 C 
HETATM   15  C15 UNL     1      25.776   1.937  53.546  1.00  0.00     0.028 C 
HETATM   16  C16 UNL     1      24.545   2.744  53.728  1.00  0.00    -0.017 C 
HETATM   17  C17 UNL     1      24.718   3.182  52.471  1.00  0.00     0.053 A 
ENDROOT
BRANCH   4  18
HETATM   18  C4  UNL     1      26.650   3.465  49.801  1.00  0.00     0.006 C 
BRANCH  18  19
HETATM   19  C5  UNL     1      26.768   4.318  48.913  1.00  0.00     0.005 C 
BRANCH  19  20
HETATM   20  C6  UNL     1      27.785   5.320  48.544  1.00  0.00     0.249 C 
HETATM   21  F1  UNL     1      28.935   4.648  48.133  1.00  0.00    -0.251 F 
ENDBRANCH  19  20
ENDBRANCH  18  19
ENDBRANCH   4  18
BRANCH   1  22
HETATM   22  N1  UNL     1      26.746  -0.025  54.974  1.00  0.00    -0.252 NA
HETATM   23  H1  UNL     1      27.419   0.580  55.422  1.00  0.00     0.142 HD
HETATM   24  H2  UNL     1      27.169  -0.976  55.111  1.00  0.00     0.142 HD
ENDBRANCH   1  22
TORSDOF 4
ENDMDL
