ROOT
HETATM    1  C3  UNL     1      26.234   0.077  54.447  1.00  0.00     0.185 C 
HETATM    2  C4  UNL     1      26.019   0.599  53.050  1.00  0.00     0.012 C 
HETATM    3  C5  UNL     1      24.885   0.769  52.347  1.00  0.00     0.029 C 
HETATM    4  C6  UNL     1      23.489   0.517  52.671  1.00  0.00     0.042 C 
HETATM    5  C7  UNL     1      22.893  -0.153  53.643  1.00  0.00     0.041 C 
HETATM    6  C8  UNL     1      21.487  -0.391  53.945  1.00  0.00     0.059 C 
HETATM    7  C9  UNL     1      20.355  -0.270  53.230  1.00  0.00     0.117 C 
HETATM    8  F1  UNL     1      19.199  -0.595  53.874  1.00  0.00    -0.206 F 
HETATM    9  C10 UNL     1      20.089   0.158  51.841  1.00  0.00     0.040 C 
HETATM   10  C11 UNL     1      20.748   1.030  51.097  1.00  0.00    -0.004 C 
HETATM   11  C12 UNL     1      21.885   1.950  51.083  1.00  0.00     0.147 C 
HETATM   12  N3  UNL     1      23.075   1.271  51.538  1.00  0.00    -0.386 N 
HETATM   13  C13 UNL     1      23.224  -0.940  54.825  1.00  0.00     0.185 C 
HETATM   14  O1  UNL     1      22.223  -1.453  55.343  1.00  0.00    -0.290 OA
HETATM   15  C14 UNL     1      24.553  -1.179  55.438  1.00  0.00     0.253 C 
HETATM   16  O2  UNL     1      25.582  -1.136  54.524  1.00  0.00    -0.369 OA
HETATM   17  H12 UNL     1      23.909   1.314  50.881  1.00  0.00     0.160 HD
ENDROOT
BRANCH   1  18
HETATM   18  C2  UNL     1      27.697   0.002  54.650  1.00  0.00     0.126 C 
HETATM   19  N2  UNL     1      28.460  -0.647  53.812  1.00  0.00    -0.256 NA
BRANCH  19  20
HETATM   20  C1  UNL     1      29.852  -0.766  53.931  1.00  0.00     0.222 C 
HETATM   21  N1  UNL     1      30.072   0.426  53.486  1.00  0.00    -0.293 NA
HETATM   22  H1  UNL     1      29.335   1.094  53.191  1.00  0.00     0.187 HD
ENDBRANCH  19  20
ENDBRANCH   1  18
TORSDOF 2
ENDMDL
