ROOT
HETATM    1  C9  UNL     1      23.914   1.767  51.557  1.00  0.00     0.035 A 
HETATM    2  C10 UNL     1      22.643   1.282  51.591  1.00  0.00     0.029 A 
HETATM    3  C11 UNL     1      22.274   0.236  52.409  1.00  0.00     0.003 A 
HETATM    4  C12 UNL     1      23.253  -0.324  53.215  1.00  0.00     0.015 A 
HETATM    5  C13 UNL     1      24.543   0.151  53.196  1.00  0.00     0.017 A 
HETATM    6  C21 UNL     1      24.902   1.199  52.373  1.00  0.00     0.045 A 
ENDROOT
BRANCH   1   7
HETATM    7  N2  UNL     1      24.462   2.825  50.752  1.00  0.00    -0.337 N 
HETATM    8  H11 UNL     1      24.810   2.195  49.967  1.00  0.00     0.168 HD
BRANCH   7   9
HETATM    9  C8  UNL     1      24.597   4.235  50.798  1.00  0.00     0.149 C 
HETATM   10  C7  UNL     1      25.474   4.952  50.148  1.00  0.00     0.022 A 
HETATM   11  C2  UNL     1      25.615   6.393  50.191  1.00  0.00     0.038 A 
HETATM   12  C6  UNL     1      26.416   4.173  49.268  1.00  0.00     0.072 A 
HETATM   13  C3  UNL     1      26.456   7.120  49.486  1.00  0.00     0.029 A 
HETATM   14  C4  UNL     1      27.394   6.448  48.565  1.00  0.00    -0.001 A 
HETATM   15  C5  UNL     1      27.278   5.151  48.559  1.00  0.00    -0.022 A 
BRANCH  11  16
HETATM   16  N1  UNL     1      24.690   6.989  51.099  1.00  0.00    -0.394 N 
HETATM   17  C1  UNL     1      23.940   8.104  50.540  1.00  0.00     0.146 C 
HETATM   18  H4  UNL     1      24.728   6.505  52.008  1.00  0.00     0.159 HD
ENDBRANCH  11  16
BRANCH   9  19
HETATM   19  O1  UNL     1      23.620   4.758  51.671  1.00  0.00    -0.346 OA
HETATM   20  H10 UNL     1      23.451   4.218  52.507  1.00  0.00     0.219 HD
ENDBRANCH   9  19
ENDBRANCH   7   9
ENDBRANCH   1   7
BRANCH   5  21
HETATM   21  C14 UNL     1      25.517  -0.498  54.027  1.00  0.00     0.192 C 
HETATM   22  O2  UNL     1      25.103  -1.115  55.068  1.00  0.00    -0.287 OA
BRANCH  21  23
HETATM   23  C15 UNL     1      26.949  -0.578  53.889  1.00  0.00     0.015 A 
HETATM   24  C16 UNL     1      27.687   0.364  54.595  1.00  0.00     0.015 A 
HETATM   25  C17 UNL     1      29.076   0.395  54.532  1.00  0.00     0.001 A 
HETATM   26  C18 UNL     1      29.791  -0.510  53.765  1.00  0.00     0.000 A 
HETATM   27  C19 UNL     1      29.025  -1.450  53.064  1.00  0.00     0.001 A 
HETATM   28  C20 UNL     1      27.640  -1.488  53.121  1.00  0.00     0.015 A 
ENDBRANCH  21  23
ENDBRANCH   5  21
TORSDOF 6
ENDMDL
