ROOT
HETATM    1  C4  UNL     1      25.677  -0.472  53.004  1.00  0.00     0.071 C 
HETATM    2  C5  UNL     1      25.209   0.500  52.252  1.00  0.00     0.059 C 
HETATM    3  C6  UNL     1      24.632   1.623  51.474  1.00  0.00     0.076 A 
HETATM    4  N1  UNL     1      23.407   1.442  50.994  1.00  0.00    -0.065 NA
HETATM    5  C7  UNL     1      22.768   2.449  50.300  1.00  0.00     0.371 A 
HETATM    6  N2  UNL     1      23.823   2.865  50.605  1.00  0.00     0.090 N 
HETATM    7  C8  UNL     1      24.644   3.860  50.572  1.00  0.00     0.335 A 
HETATM    8  C16 UNL     1      25.304   2.934  51.245  1.00  0.00     0.305 A 
HETATM    9  C17 UNL     1      26.296   2.438  51.871  1.00  0.00    -0.103 C 
HETATM   10  P1  UNL     1      27.212   1.953  52.457  1.00  0.00    -0.055 P 
HETATM   11  C18 UNL     1      29.077   0.907  53.677  1.00  0.00     0.070 C 
HETATM   12  C19 UNL     1      28.148  -0.184  53.453  1.00  0.00     0.173 C 
HETATM   13  O4  UNL     1      27.818  -1.426  53.690  1.00  0.00    -0.384 OA
HETATM   14  C20 UNL     1      26.668  -1.571  52.759  1.00  0.00     0.232 C 
HETATM   15  H18 UNL     1      27.579   1.769  52.690  1.00  0.00     0.070 HD
ENDROOT
BRANCH   7  16
HETATM   16  N3  UNL     1      25.709   4.822  50.658  1.00  0.00    -0.348 N 
HETATM   17  H10 UNL     1      26.503   5.044  51.285  1.00  0.00     0.162 HD
BRANCH  16  18
HETATM   18  C9  UNL     1      25.691   5.776  49.578  1.00  0.00     0.032 A 
HETATM   19  C10 UNL     1      24.422   6.234  49.209  1.00  0.00     0.029 A 
HETATM   20  C11 UNL     1      24.483   7.137  48.140  1.00  0.00     0.005 A 
HETATM   21  C12 UNL     1      25.555   7.596  47.457  1.00  0.00     0.037 A 
HETATM   22  C13 UNL     1      26.759   7.114  47.859  1.00  0.00     0.070 A 
HETATM   23  C15 UNL     1      26.857   6.202  48.920  1.00  0.00     0.065 A 
BRANCH  22  24
HETATM   24  O3  UNL     1      27.984   7.431  47.316  1.00  0.00    -0.356 OA
HETATM   25  C14 UNL     1      29.140   6.739  47.659  1.00  0.00     0.210 C 
ENDBRANCH  22  24
ENDBRANCH  16  18
ENDBRANCH   7  16
BRANCH   1  26
HETATM   26  O2  UNL     1      24.951  -0.150  54.116  1.00  0.00    -0.351 OA
BRANCH  26  27
HETATM   27  C3  UNL     1      23.599  -0.607  54.190  1.00  0.00     0.201 C 
BRANCH  27  28
HETATM   28  C2  UNL     1      23.339  -1.367  55.452  1.00  0.00     0.193 C 
BRANCH  28  29
HETATM   29  O1  UNL     1      22.135  -2.030  55.359  1.00  0.00    -0.394 OA
HETATM   30  C1  UNL     1      21.273  -1.493  54.439  1.00  0.00     0.201 C 
ENDBRANCH  28  29
ENDBRANCH  27  28
ENDBRANCH  26  27
ENDBRANCH   1  26
TORSDOF 7
ENDMDL
