ROOT
HETATM    1  C5  UNL     1      24.972   2.945  50.232  1.00  0.00     0.032 C 
HETATM    2  C6  UNL     1      25.020   3.053  51.561  1.00  0.00     0.069 C 
HETATM    3  N1  UNL     1      26.393   2.884  51.508  1.00  0.00    -0.247 NA
HETATM    4  C7  UNL     1      27.160   1.969  51.931  1.00  0.00     0.193 C 
HETATM    5  N2  UNL     1      26.211   1.133  52.495  1.00  0.00    -0.399 NA
HETATM    6  C8  UNL     1      26.386   0.021  53.067  1.00  0.00     0.329 C 
HETATM    7  C9  UNL     1      25.046  -0.480  53.504  1.00  0.00     0.040 C 
HETATM    8  C10 UNL     1      23.700  -0.370  53.652  1.00  0.00     0.078 C 
HETATM    9  O1  UNL     1      22.826  -1.261  54.195  1.00  0.00    -0.343 OA
HETATM   10  C11 UNL     1      21.636  -1.092  53.387  1.00  0.00     0.259 C 
HETATM   11  C12 UNL     1      21.548   0.415  53.609  1.00  0.00     0.182 C 
HETATM   12  O2  UNL     1      20.723   1.308  53.994  1.00  0.00    -0.290 OA
HETATM   13  C13 UNL     1      22.921   0.836  53.216  1.00  0.00     0.030 C 
HETATM   14  C14 UNL     1      22.973   2.109  52.728  1.00  0.00     0.075 C 
HETATM   15  C15 UNL     1      23.722   3.251  52.276  1.00  0.00     0.278 C 
ENDROOT
BRANCH   1  16
HETATM   16  C4  UNL     1      23.926   2.984  49.258  1.00  0.00     0.044 C 
BRANCH  16  17
HETATM   17  C3  UNL     1      22.907   2.916  48.430  1.00  0.00     0.115 C 
HETATM   18  F1  UNL     1      23.376   4.172  48.227  1.00  0.00    -0.206 F 
BRANCH  17  19
HETATM   19  C2  UNL     1      21.804   2.239  47.825  1.00  0.00     0.032 C 
HETATM   20  C1  UNL     1      21.436   1.238  48.592  1.00  0.00     0.014 C 
ENDBRANCH  17  19
ENDBRANCH  16  17
ENDBRANCH   1  16
BRANCH  15  21
HETATM   21  N3  UNL     1      24.032   4.230  53.349  1.00  0.00     0.089 N 
HETATM   22  H13 UNL     1      23.152   4.687  53.683  1.00  0.00     0.313 HD
HETATM   23  H14 UNL     1      24.638   4.965  52.944  1.00  0.00     0.313 HD
ENDBRANCH  15  21
TORSDOF 4
ENDMDL
