ROOT
HETATM    1  C2  UNL     1      26.509   1.696  53.584  1.00  0.00     0.126 A 
HETATM    2  C3  UNL     1      27.726   2.245  53.435  1.00  0.00     0.051 A 
HETATM    3  C4  UNL     1      28.941   1.448  53.447  1.00  0.00     0.025 A 
HETATM    4  C5  UNL     1      28.751   0.152  53.607  1.00  0.00     0.030 A 
HETATM    5 CL1  UNL     1      30.110  -0.982  53.652  1.00  0.00    -0.087 Cl
HETATM    6  C6  UNL     1      27.491  -0.617  53.743  1.00  0.00     0.200 A 
HETATM    7  N2  UNL     1      26.373   0.301  53.805  1.00  0.00    -0.159 N 
ENDROOT
BRANCH   7   8
HETATM    8  C7  UNL     1      25.088  -0.194  54.106  1.00  0.00     0.731 A 
HETATM    9  N3  UNL     1      24.970  -0.940  55.219  1.00  0.00    -0.075 NA
HETATM   10  C8  UNL     1      23.851  -1.486  55.683  1.00  0.00     0.139 A 
HETATM   11  C9  UNL     1      22.683  -1.294  54.987  1.00  0.00     0.053 A 
HETATM   12  C10 UNL     1      22.775  -0.536  53.843  1.00  0.00     0.089 A 
HETATM   13  N5  UNL     1      23.953  -0.023  53.452  1.00  0.00    -0.062 NA
BRANCH  12  14
HETATM   14  C11 UNL     1      21.612  -0.246  53.016  1.00  0.00     0.011 A 
HETATM   15  C12 UNL     1      21.767   0.221  51.734  1.00  0.00     0.017 A 
HETATM   16  C13 UNL     1      20.753   0.525  50.861  1.00  0.00     0.020 A 
HETATM   17  C14 UNL     1      19.458   0.335  51.343  1.00  0.00     0.116 A 
HETATM   18  N4  UNL     1      19.272  -0.125  52.609  1.00  0.00    -0.272 NA
HETATM   19  C15 UNL     1      20.307  -0.407  53.421  1.00  0.00     0.130 A 
ENDBRANCH  12  14
ENDBRANCH   7   8
BRANCH   1  20
HETATM   20  N1  UNL     1      25.476   2.672  53.531  1.00  0.00    -0.308 N 
HETATM   21  C1  UNL     1      25.007   2.878  52.184  1.00  0.00     0.257 C 
HETATM   22  O1  UNL     1      25.475   2.247  51.174  1.00  0.00    -0.267 OA
HETATM   23  H1  UNL     1      25.068   3.203  54.325  1.00  0.00     0.170 HD
BRANCH  21  24
HETATM   24  C16 UNL     1      23.960   3.827  51.880  1.00  0.00     0.032 A 
HETATM   25  C17 UNL     1      22.672   3.609  52.325  1.00  0.00     0.017 A 
HETATM   26  C18 UNL     1      21.605   4.452  52.084  1.00  0.00     0.001 A 
HETATM   27  C19 UNL     1      21.797   5.598  51.353  1.00  0.00     0.000 A 
HETATM   28  C20 UNL     1      23.067   5.863  50.885  1.00  0.00     0.001 A 
HETATM   29  C21 UNL     1      24.101   4.990  51.153  1.00  0.00     0.017 A 
ENDBRANCH  21  24
ENDBRANCH   1  20
TORSDOF 4
ENDMDL
