ROOT
HETATM    1  C4  UNL     1      23.516   4.191  50.375  1.00  0.00     0.224 C 
HETATM    2  N1  UNL     1      24.019   3.176  51.178  1.00  0.00    -0.276 NA
HETATM    3  C5  UNL     1      23.822   2.755  52.350  1.00  0.00     0.090 C 
HETATM    4  C6  UNL     1      24.589   1.615  52.860  1.00  0.00     0.085 C 
HETATM    5  C7  UNL     1      23.855   0.467  53.369  1.00  0.00    -0.020 C 
HETATM    6  C14 UNL     1      22.640   0.025  53.649  1.00  0.00     0.100 A 
HETATM    7  N3  UNL     1      22.547  -1.278  54.161  1.00  0.00    -0.273 N 
HETATM    8  N4  UNL     1      21.380  -1.974  54.431  1.00  0.00    -0.167 NA
HETATM    9  C15 UNL     1      20.255  -1.393  54.202  1.00  0.00     0.257 A 
HETATM   10  N5  UNL     1      20.220  -0.073  53.690  1.00  0.00    -0.221 NA
HETATM   11  C16 UNL     1      21.270   0.591  53.433  1.00  0.00     0.154 A 
HETATM   12  N6  UNL     1      20.431   1.759  53.046  1.00  0.00    -0.362 N 
HETATM   13  C17 UNL     1      20.579   2.212  51.674  1.00  0.00     0.049 A 
HETATM   14  C18 UNL     1      20.726   1.307  50.664  1.00  0.00     0.030 A 
HETATM   15  C19 UNL     1      21.247   2.402  50.031  1.00  0.00     0.050 A 
HETATM   16  C20 UNL     1      21.324   3.605  50.632  1.00  0.00     0.045 A 
HETATM   17  C21 UNL     1      21.226   4.604  51.545  1.00  0.00     0.030 A 
HETATM   18  C22 UNL     1      20.723   3.495  52.141  1.00  0.00     0.050 A 
HETATM   19  N7  UNL     1      22.297   4.009  49.619  1.00  0.00    -0.387 N 
HETATM   20  H22 UNL     1      23.262  -1.938  54.457  1.00  0.00     0.189 HD
HETATM   21  H24 UNL     1      19.777   2.226  53.785  1.00  0.00     0.162 HD
HETATM   22  H29 UNL     1      22.295   4.187  48.560  1.00  0.00     0.156 HD
ENDROOT
BRANCH   5  23
HETATM   23  C8  UNL     1      25.052  -0.455  53.443  1.00  0.00     0.204 C 
BRANCH  23  24
HETATM   24  O1  UNL     1      25.490  -0.682  54.708  1.00  0.00    -0.384 OA
BRANCH  24  25
HETATM   25  C9  UNL     1      26.596  -0.141  55.201  1.00  0.00     0.201 C 
BRANCH  25  26
HETATM   26  C10 UNL     1      27.750  -0.123  54.260  1.00  0.00     0.173 C 
HETATM   27  C11 UNL     1      28.831   0.777  54.862  1.00  0.00     0.303 C 
HETATM   28  N2  UNL     1      29.731   1.085  53.761  1.00  0.00     0.088 N 
HETATM   29  C12 UNL     1      30.141  -0.113  53.075  1.00  0.00     0.295 C 
HETATM   30  H17 UNL     1      29.222   1.753  53.145  1.00  0.00     0.316 HD
HETATM   31  C13 UNL     1      29.664  -1.338  53.808  1.00  0.00     0.198 C 
HETATM   32  O2  UNL     1      28.275  -1.305  53.878  1.00  0.00    -0.380 OA
ENDBRANCH  25  26
ENDBRANCH  24  25
ENDBRANCH  23  24
ENDBRANCH   5  23
BRANCH   1  33
HETATM   33  C3  UNL     1      24.604   4.481  49.343  1.00  0.00     0.016 C 
HETATM   34  C2  UNL     1      25.900   4.385  49.611  1.00  0.00    -0.031 C 
HETATM   35  C1  UNL     1      27.210   4.568  48.935  1.00  0.00     0.036 C 
ENDBRANCH   1  33
TORSDOF 5
ENDMDL
