ROOT
HETATM    1  N2  UNL     1      24.472  -0.176  53.708  1.00  0.00    -0.258 N 
HETATM    2  C8  UNL     1      24.914  -0.796  54.914  1.00  0.00     0.258 C 
HETATM    3  O2  UNL     1      26.173  -0.802  55.075  1.00  0.00    -0.270 OA
HETATM    4  C9  UNL     1      24.076  -1.419  55.971  1.00  0.00     0.280 C 
HETATM    5  O3  UNL     1      22.732  -1.530  55.553  1.00  0.00    -0.340 OA
HETATM    6  C10 UNL     1      22.255  -0.937  54.385  1.00  0.00     0.099 A 
HETATM    7  C11 UNL     1      20.875  -1.070  54.213  1.00  0.00     0.071 A 
HETATM    8  C12 UNL     1      20.309  -0.505  53.068  1.00  0.00     0.075 A 
HETATM    9  N3  UNL     1      18.962  -0.634  52.899  1.00  0.00    -0.241 NA
HETATM   10  C13 UNL     1      18.438  -0.083  51.789  1.00  0.00     0.236 A 
HETATM   11  N4  UNL     1      19.191   0.566  50.880  1.00  0.00    -0.220 NA
HETATM   12  C14 UNL     1      20.518   0.699  51.035  1.00  0.00     0.193 A 
HETATM   13  C15 UNL     1      21.110   0.157  52.151  1.00  0.00     0.045 A 
HETATM   14  C16 UNL     1      22.465   0.272  52.345  1.00  0.00     0.051 A 
HETATM   15  C17 UNL     1      23.052  -0.277  53.471  1.00  0.00     0.083 A 
ENDROOT
BRANCH   1  16
HETATM   16  S1  UNL     1      25.403   0.643  52.560  1.00  0.00    -0.101 SA
HETATM   17  C1  UNL     1      26.574  -0.095  51.842  1.00  0.00     0.075 C 
BRANCH  16  18
HETATM   18  C2  UNL     1      25.547   2.394  52.764  1.00  0.00     0.119 C 
BRANCH  18  19
HETATM   19  C3  UNL     1      24.675   3.067  51.727  1.00  0.00     0.283 C 
BRANCH  19  20
HETATM   20  N1  UNL     1      25.094   2.817  50.368  1.00  0.00     0.093 N 
HETATM   21  C4  UNL     1      24.259   3.494  49.408  1.00  0.00     0.298 C 
HETATM   22  C5  UNL     1      24.279   4.985  49.541  1.00  0.00     0.198 C 
HETATM   23  O1  UNL     1      25.576   5.493  49.632  1.00  0.00    -0.388 OA
HETATM   24  C6  UNL     1      26.531   4.539  49.329  1.00  0.00     0.198 C 
HETATM   25  C7  UNL     1      26.454   3.334  50.253  1.00  0.00     0.298 C 
ENDBRANCH  19  20
ENDBRANCH  18  19
ENDBRANCH  16  18
ENDBRANCH   1  16
BRANCH  12  26
HETATM   26  N5  UNL     1      21.260   1.398  50.036  1.00  0.00    -0.077 NA
HETATM   27  O4  UNL     1      21.458   0.737  48.976  1.00  0.00    -0.059 OA
ENDBRANCH  12  26
TORSDOF 5
ENDMDL
