ROOT
HETATM    1  C5  UNL     1      24.318   4.690  51.025  1.00  0.00     0.141 A 
HETATM    2  N2  UNL     1      23.891   5.907  50.661  1.00  0.00    -0.224 NA
HETATM    3  C6  UNL     1      22.637   6.346  50.809  1.00  0.00     0.236 A 
HETATM    4  N3  UNL     1      21.794   5.472  51.359  1.00  0.00    -0.241 NA
HETATM    5  C7  UNL     1      22.084   4.229  51.765  1.00  0.00     0.075 A 
HETATM    6  C8  UNL     1      21.073   3.450  52.327  1.00  0.00     0.071 A 
HETATM    7  C9  UNL     1      21.466   2.180  52.724  1.00  0.00     0.098 A 
HETATM    8  C10 UNL     1      22.776   1.776  52.552  1.00  0.00     0.071 A 
HETATM    9  C11 UNL     1      23.733   2.563  52.000  1.00  0.00     0.050 A 
HETATM   10  C12 UNL     1      23.419   3.823  51.587  1.00  0.00     0.041 A 
HETATM   11  N4  UNL     1      23.118   0.471  52.980  1.00  0.00    -0.314 N 
HETATM   12  C20 UNL     1      22.036  -0.294  53.554  1.00  0.00     0.248 C 
HETATM   13  O2  UNL     1      22.199  -1.563  53.527  1.00  0.00    -0.271 OA
HETATM   14  C21 UNL     1      20.811   0.319  54.140  1.00  0.00     0.279 C 
HETATM   15  O3  UNL     1      20.463   1.405  53.281  1.00  0.00    -0.340 OA
ENDROOT
BRANCH  11  16
HETATM   16  C13 UNL     1      24.454  -0.144  52.900  1.00  0.00     0.134 C 
BRANCH  16  17
HETATM   17  C14 UNL     1      24.990  -0.172  54.276  1.00  0.00     0.050 C 
BRANCH  17  18
HETATM   18  C15 UNL     1      26.302   0.463  54.541  1.00  0.00     0.274 C 
BRANCH  18  19
HETATM   19  N5  UNL     1      27.410  -0.007  53.795  1.00  0.00     0.092 N 
HETATM   20  C16 UNL     1      28.631   0.056  54.669  1.00  0.00     0.298 C 
HETATM   21  C17 UNL     1      29.208   1.420  54.739  1.00  0.00     0.198 C 
HETATM   22  O1  UNL     1      28.422   2.456  54.318  1.00  0.00    -0.388 OA
HETATM   23  C18 UNL     1      27.903   2.272  53.039  1.00  0.00     0.198 C 
HETATM   24  C19 UNL     1      27.821   0.822  52.668  1.00  0.00     0.298 C 
ENDBRANCH  18  19
ENDBRANCH  17  18
ENDBRANCH  16  17
ENDBRANCH  11  16
BRANCH   1  25
HETATM   25  N1  UNL     1      25.656   4.310  50.828  1.00  0.00    -0.350 N 
HETATM   26  H6  UNL     1      26.044   4.812  51.650  1.00  0.00     0.166 HD
BRANCH  25  27
HETATM   27  C4  UNL     1      26.466   3.555  49.959  1.00  0.00     0.090 C 
HETATM   28  C3  UNL     1      27.103   4.216  49.001  1.00  0.00     0.016 C 
BRANCH  28  29
HETATM   29  C2  UNL     1      27.006   5.677  48.801  1.00  0.00    -0.009 C 
HETATM   30  C1  UNL     1      28.038   6.294  48.196  1.00  0.00     0.011 C 
ENDBRANCH  28  29
ENDBRANCH  25  27
ENDBRANCH   1  25
TORSDOF 7
ENDMDL
