ROOT
HETATM    1  C1  UNL     1      23.776   1.000  52.934  1.00  0.00     0.046 C 
HETATM    2  C2  UNL     1      24.604   2.276  53.050  1.00  0.00     0.175 A 
HETATM    3  O1  UNL     1      23.708   3.344  52.857  1.00  0.00    -0.322 OA
HETATM    4  C3  UNL     1      23.803   4.228  51.827  1.00  0.00     0.180 A 
HETATM    5  N1  UNL     1      22.856   5.198  51.780  1.00  0.00    -0.217 NA
HETATM    6  C4  UNL     1      22.852   6.123  50.810  1.00  0.00     0.238 A 
HETATM    7  N2  UNL     1      23.827   6.031  49.902  1.00  0.00    -0.223 NA
HETATM    8  C5  UNL     1      24.789   5.130  49.862  1.00  0.00     0.144 A 
HETATM    9  C12 UNL     1      24.777   4.191  50.863  1.00  0.00     0.065 A 
HETATM   10  C13 UNL     1      25.721   3.109  51.031  1.00  0.00     0.047 A 
HETATM   11  C14 UNL     1      25.675   2.205  52.026  1.00  0.00     0.035 A 
ENDROOT
BRANCH  11  12
HETATM   12  N4  UNL     1      26.699   1.219  52.024  1.00  0.00    -0.388 N 
HETATM   13  H11 UNL     1      27.638   1.720  52.005  1.00  0.00     0.159 HD
BRANCH  12  14
HETATM   14  C15 UNL     1      26.813  -0.224  52.031  1.00  0.00     0.165 C 
BRANCH  14  15
HETATM   15  C16 UNL     1      27.068  -0.825  53.372  1.00  0.00     0.336 C 
HETATM   16  N5  UNL     1      28.014  -1.912  53.344  1.00  0.00     0.101 N 
HETATM   17  C17 UNL     1      29.387  -1.556  53.398  1.00  0.00     0.297 C 
HETATM   18  H15 UNL     1      27.848  -2.550  52.525  1.00  0.00     0.317 HD
HETATM   19  C18 UNL     1      29.716  -0.117  53.552  1.00  0.00     0.209 C 
HETATM   20  O2  UNL     1      28.798   0.623  54.289  1.00  0.00    -0.318 OA
HETATM   21  C19 UNL     1      27.499   0.176  54.365  1.00  0.00     0.294 C 
HETATM   22  O3  UNL     1      26.678   0.590  55.247  1.00  0.00    -0.263 OA
ENDBRANCH  14  15
ENDBRANCH  12  14
ENDBRANCH  11  12
BRANCH   8  23
HETATM   23  N3  UNL     1      25.809   5.051  48.887  1.00  0.00    -0.340 N 
HETATM   24  H6  UNL     1      25.801   4.326  48.146  1.00  0.00     0.167 HD
BRANCH  23  25
HETATM   25  C6  UNL     1      26.970   5.845  48.691  1.00  0.00     0.035 A 
HETATM   26  C7  UNL     1      27.054   7.218  48.755  1.00  0.00     0.032 A 
HETATM   27  C8  UNL     1      28.207   7.933  48.557  1.00  0.00     0.046 A 
HETATM   28  C9  UNL     1      29.388   7.283  48.272  1.00  0.00     0.138 A 
HETATM   29  F1  UNL     1      30.461   8.073  48.094  1.00  0.00    -0.204 F 
HETATM   30  C10 UNL     1      29.341   5.909  48.199  1.00  0.00     0.074 A 
HETATM   31 CL1  UNL     1      30.898   5.159  47.829  1.00  0.00    -0.081 Cl
HETATM   32  C11 UNL     1      28.164   5.221  48.404  1.00  0.00     0.056 A 
ENDBRANCH  23  25
ENDBRANCH   8  23
TORSDOF 5
ENDMDL
