ROOT
HETATM    1  C7  UNL     1      26.467  -0.642  53.178  1.00  0.00    -0.004 A 
HETATM    2  C8  UNL     1      27.341  -1.713  52.993  1.00  0.00     0.030 A 
HETATM    3  C9  UNL     1      28.611  -1.235  53.225  1.00  0.00     0.119 A 
HETATM    4  N3  UNL     1      28.476   0.064  53.534  1.00  0.00    -0.240 N 
HETATM    5  N4  UNL     1      29.500   0.853  53.817  1.00  0.00    -0.161 NA
HETATM    6  C10 UNL     1      29.268   2.148  54.114  1.00  0.00     0.258 A 
HETATM    7  N5  UNL     1      27.989   2.540  54.096  1.00  0.00    -0.220 NA
HETATM    8  C11 UNL     1      26.935   1.770  53.814  1.00  0.00     0.159 A 
HETATM    9  C19 UNL     1      27.192   0.455  53.515  1.00  0.00     0.112 A 
ENDROOT
BRANCH   8  10
HETATM   10  N6  UNL     1      25.608   2.246  53.807  1.00  0.00    -0.339 N 
HETATM   11  H17 UNL     1      24.914   2.266  54.564  1.00  0.00     0.167 HD
BRANCH  10  12
HETATM   12  C12 UNL     1      24.947   2.814  52.687  1.00  0.00     0.035 A 
HETATM   13  C13 UNL     1      25.378   2.575  51.406  1.00  0.00     0.032 A 
HETATM   14  C14 UNL     1      24.794   3.107  50.282  1.00  0.00     0.041 A 
HETATM   15  C15 UNL     1      23.703   3.941  50.385  1.00  0.00     0.090 A 
HETATM   16  C17 UNL     1      23.218   4.223  51.642  1.00  0.00     0.069 A 
HETATM   17 CL1  UNL     1      21.843   5.268  51.851  1.00  0.00    -0.081 Cl
HETATM   18  C18 UNL     1      23.852   3.654  52.722  1.00  0.00     0.056 A 
BRANCH  15  19
HETATM   19  O1  UNL     1      23.054   4.520  49.318  1.00  0.00    -0.354 OA
HETATM   20  C16 UNL     1      22.638   3.750  48.200  1.00  0.00     0.210 C 
ENDBRANCH  15  19
ENDBRANCH  10  12
ENDBRANCH   8  10
BRANCH   1  21
HETATM   21  C6  UNL     1      25.000  -0.744  53.027  1.00  0.00     0.189 C 
BRANCH  21  22
HETATM   22  N2  UNL     1      24.370  -0.724  54.328  1.00  0.00    -0.301 NA
HETATM   23  C5  UNL     1      23.123  -0.890  54.531  1.00  0.00     0.086 C 
BRANCH  23  24
HETATM   24  C4  UNL     1      22.089  -1.131  53.510  1.00  0.00     0.081 C 
BRANCH  24  25
HETATM   25  C3  UNL     1      20.989  -0.111  53.526  1.00  0.00     0.222 C 
BRANCH  25  26
HETATM   26  C2  UNL     1      21.287   1.112  52.720  1.00  0.00     0.031 C 
HETATM   27  C1  UNL     1      21.884   0.681  51.397  1.00  0.00     0.007 C 
ENDBRANCH  25  26
BRANCH  25  28
HETATM   28  N1  UNL     1      20.592   0.202  54.886  1.00  0.00     0.083 N 
HETATM   29  H7  UNL     1      21.063   1.101  55.165  1.00  0.00     0.313 HD
HETATM   30  H8  UNL     1      19.573   0.241  55.010  1.00  0.00     0.313 HD
ENDBRANCH  25  28
ENDBRANCH  24  25
ENDBRANCH  23  24
ENDBRANCH  21  22
ENDBRANCH   1  21
TORSDOF 9
ENDMDL
