ROOT
HETATM    1  N1  UNL     1      21.797  -0.950  54.567  1.00  0.00    -0.197 NA
HETATM    2  C1  UNL     1      22.132  -0.072  53.876  1.00  0.00     0.063 C 
HETATM    3  C2  UNL     1      22.572   1.044  53.005  1.00  0.00     0.162 C 
ENDROOT
BRANCH   3   4
HETATM    4  C3  UNL     1      24.017   0.875  52.683  1.00  0.00    -0.044 A 
HETATM    5  C4  UNL     1      24.717  -0.259  53.066  1.00  0.00     0.008 A 
HETATM    6  C5  UNL     1      26.073  -0.404  52.756  1.00  0.00     0.001 A 
HETATM    7  C6  UNL     1      26.715   0.606  52.057  1.00  0.00     0.011 A 
HETATM    8  C7  UNL     1      26.037   1.739  51.669  1.00  0.00    -0.034 A 
HETATM    9  C15 UNL     1      24.707   1.844  51.991  1.00  0.00     0.019 A 
BRANCH   8  10
HETATM   10  C8  UNL     1      26.695   2.812  50.932  1.00  0.00     0.030 C 
HETATM   11  C9  UNL     1      26.274   3.211  49.755  1.00  0.00     0.118 C 
BRANCH  11  12
HETATM   12  N2  UNL     1      26.873   4.235  49.012  1.00  0.00    -0.256 NA
HETATM   13  C10 UNL     1      26.453   5.473  49.061  1.00  0.00     0.208 C 
BRANCH  13  14
HETATM   14  N3  UNL     1      27.080   6.513  48.289  1.00  0.00    -0.338 N 
HETATM   15  H9  UNL     1      26.603   7.091  47.555  1.00  0.00     0.168 HD
BRANCH  14  16
HETATM   16  C11 UNL     1      28.457   6.759  48.561  1.00  0.00     0.129 C 
HETATM   17  N4  UNL     1      29.233   5.792  48.843  1.00  0.00    -0.286 NA
HETATM   18  H10 UNL     1      28.926   4.811  48.894  1.00  0.00     0.188 HD
BRANCH  16  19
HETATM   19  C12 UNL     1      29.002   8.159  48.530  1.00  0.00     0.268 C 
HETATM   20  C13 UNL     1      28.196   9.002  49.412  1.00  0.00     0.086 C 
HETATM   21  N5  UNL     1      27.545   9.680  50.105  1.00  0.00    -0.195 NA
HETATM   22  C14 UNL     1      30.405   8.190  48.987  1.00  0.00     0.086 C 
HETATM   23  N6  UNL     1      31.511   8.222  49.340  1.00  0.00    -0.195 NA
ENDBRANCH  16  19
ENDBRANCH  14  16
ENDBRANCH  13  14
ENDBRANCH  11  12
ENDBRANCH   8  10
ENDBRANCH   3   4
TORSDOF 6
ENDMDL
