ROOT
HETATM    1  C9  UNL     1      25.601   1.725  52.918  1.00  0.00     0.072 A 
HETATM    2  C10 UNL     1      25.211   0.416  52.747  1.00  0.00     0.038 A 
HETATM    3  C11 UNL     1      26.053  -0.672  52.820  1.00  0.00     0.021 A 
HETATM    4  C12 UNL     1      27.385  -0.427  53.086  1.00  0.00     0.048 A 
HETATM    5  C13 UNL     1      28.211  -1.546  53.154  1.00  0.00     0.186 A 
HETATM    6  O4  UNL     1      27.775  -2.707  52.986  1.00  0.00    -0.287 OA
HETATM    7  C14 UNL     1      29.550  -1.357  53.418  1.00  0.00     0.080 A 
HETATM    8  C15 UNL     1      29.925  -0.029  53.587  1.00  0.00     0.146 A 
HETATM    9  O5  UNL     1      29.109   1.005  53.514  1.00  0.00    -0.322 OA
HETATM   10  C16 UNL     1      27.827   0.868  53.267  1.00  0.00     0.091 A 
HETATM   11  C17 UNL     1      26.942   1.923  53.182  1.00  0.00     0.075 A 
ENDROOT
BRANCH   1  12
HETATM   12  O3  UNL     1      24.704   2.786  52.832  1.00  0.00    -0.341 OA
BRANCH  12  13
HETATM   13  C8  UNL     1      24.601   3.359  51.521  1.00  0.00     0.286 C 
BRANCH  13  14
HETATM   14  C7  UNL     1      23.424   2.890  50.782  1.00  0.00     0.283 C 
HETATM   15  O2  UNL     1      23.524   3.206  49.576  1.00  0.00    -0.263 OA
BRANCH  14  16
HETATM   16  O1  UNL     1      22.416   2.216  51.402  1.00  0.00    -0.320 OA
BRANCH  16  17
HETATM   17  C6  UNL     1      21.961   0.988  50.872  1.00  0.00     0.178 C 
BRANCH  17  18
HETATM   18  C5  UNL     1      21.620   0.075  52.008  1.00  0.00     0.027 C 
BRANCH  18  19
HETATM   19  C4  UNL     1      21.187   0.945  53.171  1.00  0.00     0.002 C 
BRANCH  19  20
HETATM   20  C3  UNL     1      21.236   0.103  54.413  1.00  0.00    -0.000 C 
BRANCH  20  21
HETATM   21  C2  UNL     1      22.117  -1.134  54.195  1.00  0.00    -0.005 C 
HETATM   22  C1  UNL     1      23.005  -1.374  55.393  1.00  0.00     0.005 C 
ENDBRANCH  20  21
ENDBRANCH  19  20
ENDBRANCH  18  19
ENDBRANCH  17  18
ENDBRANCH  16  17
ENDBRANCH  14  16
ENDBRANCH  13  14
ENDBRANCH  12  13
ENDBRANCH   1  12
TORSDOF 9
ENDMDL
