ROOT
HETATM    1  C5  UNL     1      22.535   2.530  50.229  1.00  0.00     0.075 C 
HETATM    2  C6  UNL     1      23.626   2.674  51.000  1.00  0.00     0.079 C 
HETATM    3  S1  UNL     1      25.184   3.498  51.053  1.00  0.00    -0.118 SA
HETATM    4  C7  UNL     1      26.546   2.429  50.615  1.00  0.00     0.226 C 
HETATM    5  N1  UNL     1      26.808   1.429  51.626  1.00  0.00    -0.267 N 
HETATM    6  N2  UNL     1      26.574  -0.056  51.655  1.00  0.00    -0.180 NA
HETATM    7  C8  UNL     1      26.451  -0.210  52.961  1.00  0.00     0.067 C 
HETATM    8  C9  UNL     1      27.913   0.205  53.122  1.00  0.00     0.114 C 
HETATM    9  C10 UNL     1      27.449   1.706  52.966  1.00  0.00     0.247 C 
HETATM   10  O1  UNL     1      26.420   1.888  53.856  1.00  0.00    -0.362 OA
HETATM   11  C11 UNL     1      26.358   0.995  54.936  1.00  0.00     0.208 C 
HETATM   12  C12 UNL     1      25.937  -0.442  54.409  1.00  0.00     0.195 C 
HETATM   13  O2  UNL     1      24.642  -0.480  54.395  1.00  0.00    -0.373 OA
HETATM   14  C13 UNL     1      23.735  -1.264  54.977  1.00  0.00     0.207 C 
HETATM   15  C14 UNL     1      22.397  -0.715  54.409  1.00  0.00    -0.034 A 
HETATM   16  C15 UNL     1      21.304  -0.110  54.959  1.00  0.00     0.012 A 
HETATM   17  C16 UNL     1      20.420   0.330  54.018  1.00  0.00     0.038 A 
HETATM   18  C17 UNL     1      20.622   0.171  52.685  1.00  0.00     0.076 A 
HETATM   19  C18 UNL     1      21.678  -0.427  52.036  1.00  0.00     0.038 A 
HETATM   20  C19 UNL     1      22.545  -0.852  53.019  1.00  0.00     0.012 A 
HETATM   21  O3  UNL     1      19.799   0.596  51.606  1.00  0.00    -0.304 OA
HETATM   22  C20 UNL     1      20.349   1.660  50.806  1.00  0.00     0.259 C 
HETATM   23  N3  UNL     1      21.613   1.686  50.842  1.00  0.00    -0.236 NA
ENDROOT
BRANCH   1  24
HETATM   24  C4  UNL     1      22.381   3.193  48.953  1.00  0.00    -0.007 A 
HETATM   25  C3  UNL     1      22.304   4.563  48.872  1.00  0.00     0.015 A 
HETATM   26  C2  UNL     1      22.159   5.238  47.685  1.00  0.00     0.024 A 
HETATM   27  C1  UNL     1      22.082   4.568  46.488  1.00  0.00     0.034 A 
HETATM   28 CL1  UNL     1      21.898   5.410  44.964  1.00  0.00    -0.084 Cl
HETATM   29  C22 UNL     1      22.154   3.192  46.521  1.00  0.00     0.024 A 
HETATM   30  C21 UNL     1      22.299   2.562  47.739  1.00  0.00     0.015 A 
ENDBRANCH   1  24
TORSDOF 1
ENDMDL
