ROOT
HETATM    1  N1  UNL     1      26.135  -0.172  53.170  1.00  0.00    -0.410 N 
HETATM    2  C3  UNL     1      25.027  -0.895  53.695  1.00  0.00     0.117 C 
HETATM    3  C4  UNL     1      23.772  -0.128  54.000  1.00  0.00     0.021 C 
HETATM    4  C5  UNL     1      22.982   0.422  52.916  1.00  0.00     0.029 C 
HETATM    5  C6  UNL     1      23.452   1.351  51.889  1.00  0.00     0.108 C 
HETATM    6  C7  UNL     1      24.218   2.578  52.240  1.00  0.00     0.122 C 
HETATM    7  S1  UNL     1      25.981   2.422  51.707  1.00  0.00    -0.154 SA
HETATM    8  C8  UNL     1      27.003   2.166  53.211  1.00  0.00     0.094 C 
HETATM    9  C9  UNL     1      26.341   0.994  53.910  1.00  0.00     0.127 C 
HETATM   10  C10 UNL     1      23.694   3.770  51.461  1.00  0.00     0.047 C 
HETATM   11  C11 UNL     1      23.788   4.209  50.173  1.00  0.00     0.029 C 
HETATM   12  C12 UNL     1      23.488   3.076  49.171  1.00  0.00     0.019 C 
HETATM   13  C13 UNL     1      22.613   2.014  49.430  1.00  0.00     0.091 C 
HETATM   14  N2  UNL     1      22.376   1.600  50.864  1.00  0.00    -0.358 N 
HETATM   15  C14 UNL     1      20.926   1.468  50.913  1.00  0.00     0.124 C 
HETATM   16  C15 UNL     1      20.185   2.098  51.767  1.00  0.00     0.099 C 
HETATM   17  N3  UNL     1      20.546   3.043  52.508  1.00  0.00    -0.254 NA
HETATM   18  C16 UNL     1      21.729   3.665  52.313  1.00  0.00     0.276 C 
HETATM   19  N4  UNL     1      22.776   4.565  52.337  1.00  0.00    -0.261 NA
ENDROOT
BRANCH   1  20
HETATM   20  C2  UNL     1      27.172  -1.010  52.769  1.00  0.00     0.143 C 
BRANCH  20  21
HETATM   21  C1  UNL     1      26.927  -2.407  52.377  1.00  0.00     0.183 C 
BRANCH  21  22
HETATM   22  O1  UNL     1      28.089  -3.135  52.769  1.00  0.00    -0.399 OA
HETATM   23  H1  UNL     1      28.083  -4.054  52.459  1.00  0.00     0.209 HD
ENDBRANCH  21  22
ENDBRANCH  20  21
ENDBRANCH   1  20
TORSDOF 3
ENDMDL
