ROOT
HETATM    1  C2  UNL     1      24.628  -0.372  53.733  1.00  0.00     0.130 A 
HETATM    2  C3  UNL     1      25.266   0.487  52.849  1.00  0.00     0.068 A 
HETATM    3  C4  UNL     1      26.476   1.092  53.049  1.00  0.00     0.044 A 
HETATM    4  C5  UNL     1      27.081   1.931  52.165  1.00  0.00     0.142 A 
HETATM    5  N3  UNL     1      28.261   2.401  52.580  1.00  0.00    -0.224 NA
HETATM    6  C12 UNL     1      28.837   2.107  53.741  1.00  0.00     0.236 A 
HETATM    7  N4  UNL     1      28.235   1.278  54.608  1.00  0.00    -0.240 NA
HETATM    8  C13 UNL     1      27.050   0.771  54.258  1.00  0.00     0.089 A 
HETATM    9  C14 UNL     1      26.455  -0.077  55.167  1.00  0.00     0.151 A 
HETATM   10  N5  UNL     1      25.243  -0.646  54.901  1.00  0.00    -0.241 NA
ENDROOT
BRANCH   4  11
HETATM   11  N2  UNL     1      26.463   2.228  50.945  1.00  0.00    -0.340 N 
HETATM   12  H4  UNL     1      26.133   1.492  50.318  1.00  0.00     0.167 HD
BRANCH  11  13
HETATM   13  C6  UNL     1      26.177   3.486  50.351  1.00  0.00     0.035 A 
HETATM   14  C7  UNL     1      26.911   4.084  49.336  1.00  0.00     0.032 A 
HETATM   15  C8  UNL     1      26.608   5.296  48.782  1.00  0.00     0.046 A 
HETATM   16  C9  UNL     1      25.519   6.015  49.216  1.00  0.00     0.138 A 
HETATM   17  F1  UNL     1      25.301   7.198  48.611  1.00  0.00    -0.204 F 
HETATM   18  C10 UNL     1      24.751   5.455  50.234  1.00  0.00     0.074 A 
HETATM   19 CL1  UNL     1      23.387   6.413  50.739  1.00  0.00    -0.081 Cl
HETATM   20  C11 UNL     1      25.102   4.229  50.758  1.00  0.00     0.056 A 
ENDBRANCH  11  13
ENDBRANCH   4  11
BRANCH   1  21
HETATM   21  N1  UNL     1      23.365  -0.958  53.443  1.00  0.00    -0.319 N 
HETATM   22  H2  UNL     1      23.218  -1.414  52.509  1.00  0.00     0.169 HD
BRANCH  21  23
HETATM   23  C1  UNL     1      22.321  -0.922  54.406  1.00  0.00     0.354 C 
HETATM   24  O1  UNL     1      22.081  -1.981  55.075  1.00  0.00    -0.283 OA
ENDBRANCH  21  23
ENDBRANCH   1  21
TORSDOF 4
ENDMDL
