ROOT
HETATM    1  C4  UNL     1      21.783   3.899  51.099  1.00  0.00     0.095 C 
HETATM    2  C5  UNL     1      20.597   3.792  51.951  1.00  0.00     0.044 C 
HETATM    3  N2  UNL     1      21.303   3.998  49.622  1.00  0.00    -0.288 NA
HETATM    4  C6  UNL     1      21.862   4.726  48.759  1.00  0.00     0.113 C 
HETATM    5  C7  UNL     1      22.644   5.626  47.918  1.00  0.00     0.043 C 
HETATM    6  C8  UNL     1      23.697   6.469  48.068  1.00  0.00     0.138 C 
HETATM    7  O1  UNL     1      24.374   6.681  49.350  1.00  0.00    -0.339 OA
HETATM    8  C9  UNL     1      23.721   5.815  50.312  1.00  0.00     0.181 A 
HETATM    9  C10 UNL     1      22.515   6.417  50.416  1.00  0.00     0.067 A 
HETATM   10  C11 UNL     1      21.569   5.803  51.207  1.00  0.00    -0.031 A 
HETATM   11  C12 UNL     1      22.715   5.050  51.234  1.00  0.00     0.019 A 
HETATM   12  N3  UNL     1      23.944   4.676  50.985  1.00  0.00     0.000 N 
HETATM   13  C13 UNL     1      24.527   3.812  51.946  1.00  0.00     0.029 A 
HETATM   14  C14 UNL     1      23.506   4.547  52.443  1.00  0.00     0.075 A 
HETATM   15  C21 UNL     1      24.930   5.197  50.220  1.00  0.00     0.237 A 
HETATM   16  O2  UNL     1      25.998   4.751  50.068  1.00  0.00    -0.286 OA
ENDROOT
BRANCH  13  17
HETATM   17  N4  UNL     1      25.590   2.939  51.751  1.00  0.00    -0.380 N 
HETATM   18  H17 UNL     1      26.173   3.068  50.902  1.00  0.00     0.160 HD
BRANCH  17  19
HETATM   19  C15 UNL     1      25.668   2.003  52.801  1.00  0.00     0.130 A 
HETATM   20  C16 UNL     1      25.591   0.575  52.413  1.00  0.00     0.026 A 
HETATM   21  C17 UNL     1      26.671  -0.106  52.833  1.00  0.00     0.047 A 
HETATM   22 CL1  UNL     1      27.143  -1.805  52.676  1.00  0.00    -0.084 Cl
HETATM   23  C18 UNL     1      27.573   0.821  53.547  1.00  0.00     0.067 A 
HETATM   24  C20 UNL     1      26.983   2.014  53.516  1.00  0.00     0.020 A 
BRANCH  23  25
HETATM   25  C19 UNL     1      28.882   0.543  54.197  1.00  0.00     0.418 C 
HETATM   26  F1  UNL     1      29.760   0.034  53.271  1.00  0.00    -0.166 F 
HETATM   27  F2  UNL     1      29.442   1.770  54.593  1.00  0.00    -0.166 F 
HETATM   28  F3  UNL     1      28.721  -0.235  55.308  1.00  0.00    -0.166 F 
ENDBRANCH  23  25
ENDBRANCH  17  19
ENDBRANCH  13  17
BRANCH   1  29
HETATM   29  C3  UNL     1      22.403   2.545  50.963  1.00  0.00     0.270 C 
BRANCH  29  30
HETATM   30  C2  UNL     1      21.809   1.918  49.646  1.00  0.00     0.000 C 
HETATM   31  C1  UNL     1      21.343   0.648  49.676  1.00  0.00     0.009 C 
ENDBRANCH  29  30
BRANCH  29  32
HETATM   32  N1  UNL     1      22.076   1.549  51.970  1.00  0.00     0.089 N 
HETATM   33  H5  UNL     1      22.951   1.403  52.536  1.00  0.00     0.313 HD
HETATM   34  H6  UNL     1      21.789   0.624  51.546  1.00  0.00     0.313 HD
ENDBRANCH  29  32
ENDBRANCH   1  29
TORSDOF 7
ENDMDL
