ROOT
HETATM    1  C1  UNL     1      29.107  -1.171  53.465  1.00  0.00     0.112 C 
HETATM    2  C2  UNL     1      27.939  -0.289  53.377  1.00  0.00    -0.101 C 
HETATM    3  C3  UNL     1      26.950   0.439  53.295  1.00  0.00    -0.006 C 
ENDROOT
BRANCH   3   4
HETATM    4  C4  UNL     1      25.785   1.276  53.187  1.00  0.00     0.296 C 
HETATM    5  O1  UNL     1      25.844   2.342  53.838  1.00  0.00    -0.258 OA
HETATM    6  N1  UNL     1      24.646   0.922  52.401  1.00  0.00    -0.346 N 
HETATM    7  H4  UNL     1      24.744  -0.010  51.909  1.00  0.00     0.163 HD
BRANCH   6   8
HETATM    8  C5  UNL     1      23.534   1.934  52.427  1.00  0.00     0.158 C 
BRANCH   8   9
HETATM    9  C6  UNL     1      23.402   2.579  51.142  1.00  0.00    -0.055 C 
HETATM   10  C7  UNL     1      23.828   3.774  50.833  1.00  0.00     0.057 C 
HETATM   11  C8  UNL     1      24.257   5.056  50.408  1.00  0.00     0.148 C 
HETATM   12  N3  UNL     1      24.254   5.723  51.537  1.00  0.00    -0.156 NA
HETATM   13  N4  UNL     1      23.884   5.176  52.749  1.00  0.00    -0.270 N 
HETATM   14  C15 UNL     1      22.468   4.833  52.478  1.00  0.00     0.394 C 
HETATM   15  H13 UNL     1      23.530   4.750  53.629  1.00  0.00     0.190 HD
HETATM   16  N5  UNL     1      21.394   4.179  52.105  1.00  0.00    -0.382 NA
HETATM   17  C16 UNL     1      21.381   2.862  51.548  1.00  0.00     0.074 C 
HETATM   18  C17 UNL     1      21.299   1.590  51.044  1.00  0.00    -0.006 C 
HETATM   19  C18 UNL     1      22.664   1.535  50.352  1.00  0.00     0.064 C 
BRANCH  11  20
HETATM   20  N2  UNL     1      24.445   5.916  49.321  1.00  0.00    -0.340 N 
HETATM   21  H8  UNL     1      23.458   6.255  49.075  1.00  0.00     0.167 HD
BRANCH  20  22
HETATM   22  C9  UNL     1      25.742   6.153  48.803  1.00  0.00     0.035 A 
HETATM   23  C10 UNL     1      26.872   5.343  48.856  1.00  0.00     0.029 A 
HETATM   24  C11 UNL     1      28.049   5.753  48.283  1.00  0.00     0.004 A 
HETATM   25  C12 UNL     1      28.105   6.979  47.649  1.00  0.00     0.019 A 
HETATM   26  C13 UNL     1      27.004   7.804  47.579  1.00  0.00     0.013 A 
HETATM   27 BR1  UNL     1      27.265   9.455  46.668  1.00  0.00    -0.051 Br
HETATM   28  C14 UNL     1      25.823   7.389  48.158  1.00  0.00     0.048 A 
ENDBRANCH  20  22
ENDBRANCH  11  20
ENDBRANCH   8   9
ENDBRANCH   6   8
ENDBRANCH   3   4
TORSDOF 5
ENDMDL
