ROOT
HETATM    1  C6  UNL     1      22.715   1.579  52.555  1.00  0.00     0.067 C 
HETATM    2  N1  UNL     1      23.749   0.870  52.397  1.00  0.00    -0.180 NA
HETATM    3  N2  UNL     1      24.901   1.613  52.378  1.00  0.00    -0.286 N 
HETATM    4  C15 UNL     1      24.504   3.029  52.197  1.00  0.00     0.134 C 
HETATM    5  C23 UNL     1      23.072   3.006  52.679  1.00  0.00     0.093 C 
ENDROOT
BRANCH   3   6
HETATM    6  C7  UNL     1      26.289   1.126  52.479  1.00  0.00     0.157 C 
HETATM    7  C8  UNL     1      25.975  -0.048  53.352  1.00  0.00     0.014 C 
HETATM    8  C9  UNL     1      26.052  -1.308  52.890  1.00  0.00    -0.031 C 
HETATM    9  C10 UNL     1      27.370  -1.576  52.656  1.00  0.00    -0.005 C 
HETATM   10  C11 UNL     1      28.173  -0.577  53.458  1.00  0.00     0.049 A 
HETATM   11  C12 UNL     1      29.029  -0.115  54.492  1.00  0.00     0.038 A 
HETATM   12  C13 UNL     1      28.655   0.922  53.721  1.00  0.00    -0.042 A 
HETATM   13  C14 UNL     1      28.315   1.801  53.058  1.00  0.00     0.049 A 
HETATM   14  N3  UNL     1      27.897   2.810  52.288  1.00  0.00    -0.220 NA
HETATM   15  O2  UNL     1      26.935   2.177  53.027  1.00  0.00     0.000 OA
HETATM   16  H11 UNL     1      28.878   2.969  51.948  1.00  0.00     0.147 HD
ENDBRANCH   3   6
BRANCH   4  17
HETATM   17  C16 UNL     1      24.563   3.391  50.775  1.00  0.00     0.004 C 
HETATM   18  C17 UNL     1      24.327   4.624  50.898  1.00  0.00    -0.066 A 
HETATM   19  C18 UNL     1      24.423   4.944  49.146  1.00  0.00     0.068 A 
HETATM   20  C22 UNL     1      23.953   6.394  51.473  1.00  0.00     0.070 A 
HETATM   21  C19 UNL     1      24.314   6.069  48.040  1.00  0.00     0.040 A 
HETATM   22  C21 UNL     1      24.079   6.307  50.218  1.00  0.00    -0.060 A 
HETATM   23  C20 UNL     1      24.179   6.216  49.270  1.00  0.00    -0.058 A 
ENDBRANCH   4  17
BRANCH   1  24
HETATM   24  C5  UNL     1      21.446   0.871  52.585  1.00  0.00    -0.010 A 
HETATM   25  C4  UNL     1      20.486   0.924  51.603  1.00  0.00     0.016 A 
HETATM   26  C3  UNL     1      19.306   0.189  51.771  1.00  0.00     0.037 A 
HETATM   27  C2  UNL     1      19.121  -0.573  52.906  1.00  0.00     0.068 A 
HETATM   28  C25 UNL     1      20.100  -0.606  53.875  1.00  0.00     0.037 A 
HETATM   29  C24 UNL     1      21.279   0.129  53.707  1.00  0.00     0.016 A 
BRANCH  27  30
HETATM   30  O1  UNL     1      17.925  -1.273  52.998  1.00  0.00    -0.356 OA
HETATM   31  C1  UNL     1      17.765  -2.534  53.573  1.00  0.00     0.210 C 
ENDBRANCH  27  30
ENDBRANCH   1  24
TORSDOF 4
ENDMDL
