ROOT
HETATM    1  C3  UNL     1      22.999   0.499  52.856  1.00  0.00     0.097 A 
HETATM    2  C4  UNL     1      21.882   0.639  52.064  1.00  0.00     0.071 A 
HETATM    3  C5  UNL     1      21.891   1.370  50.915  1.00  0.00     0.075 A 
HETATM    4  N1  UNL     1      20.788   1.493  50.154  1.00  0.00    -0.241 NA
HETATM    5  C6  UNL     1      20.847   2.230  49.021  1.00  0.00     0.235 A 
HETATM    6  N2  UNL     1      22.007   2.820  48.684  1.00  0.00    -0.224 NA
HETATM    7  C7  UNL     1      23.138   2.732  49.402  1.00  0.00     0.138 A 
HETATM    8  C16 UNL     1      23.073   1.981  50.555  1.00  0.00     0.041 A 
HETATM    9  C17 UNL     1      24.180   1.830  51.360  1.00  0.00     0.050 A 
HETATM   10  C18 UNL     1      24.195   1.098  52.524  1.00  0.00     0.069 A 
ENDROOT
BRANCH  10  11
HETATM   11  N4  UNL     1      25.269   0.888  53.406  1.00  0.00    -0.323 N 
HETATM   12  C19 UNL     1      26.340  -0.037  53.320  1.00  0.00     0.247 C 
HETATM   13  O2  UNL     1      26.399  -0.813  52.336  1.00  0.00    -0.271 OA
HETATM   14  H19 UNL     1      25.377   1.449  54.278  1.00  0.00     0.169 HD
BRANCH  12  15
HETATM   15  C20 UNL     1      27.435  -0.204  54.280  1.00  0.00     0.203 C 
HETATM   16  C21 UNL     1      28.741  -0.573  53.650  1.00  0.00     0.215 C 
HETATM   17  O3  UNL     1      29.309   0.678  53.331  1.00  0.00    -0.301 OA
HETATM   18  C22 UNL     1      29.059   1.503  54.442  1.00  0.00     0.361 C 
HETATM   19  O4  UNL     1      29.739   2.409  55.020  1.00  0.00    -0.238 OA
HETATM   20  N5  UNL     1      27.742   1.091  54.857  1.00  0.00    -0.321 N 
HETATM   21  H23 UNL     1      27.153   1.705  55.491  1.00  0.00     0.165 HD
ENDBRANCH  12  15
ENDBRANCH  10  11
BRANCH   1  22
HETATM   22  O1  UNL     1      22.885  -0.259  53.995  1.00  0.00    -0.349 OA
BRANCH  22  23
HETATM   23  C2  UNL     1      21.717  -0.547  54.703  1.00  0.00     0.171 C 
HETATM   24  C1  UNL     1      21.190  -1.935  54.538  1.00  0.00     0.034 C 
ENDBRANCH  22  23
ENDBRANCH   1  22
BRANCH   7  25
HETATM   25  N3  UNL     1      24.311   3.394  48.959  1.00  0.00    -0.366 N 
HETATM   26  H8  UNL     1      24.969   3.089  48.217  1.00  0.00     0.161 HD
BRANCH  25  27
HETATM   27  C8  UNL     1      24.687   4.653  49.579  1.00  0.00     0.112 C 
HETATM   28  C9  UNL     1      23.537   5.596  49.448  1.00  0.00     0.037 C 
BRANCH  27  29
HETATM   29  C10 UNL     1      25.955   5.206  49.060  1.00  0.00    -0.036 A 
HETATM   30  C11 UNL     1      27.114   4.475  48.985  1.00  0.00     0.009 A 
HETATM   31  C12 UNL     1      28.267   5.083  48.480  1.00  0.00     0.001 A 
HETATM   32  C13 UNL     1      28.289   6.412  48.046  1.00  0.00     0.000 A 
HETATM   33  C14 UNL     1      27.131   7.169  48.112  1.00  0.00     0.001 A 
HETATM   34  C15 UNL     1      26.032   6.528  48.614  1.00  0.00     0.009 A 
ENDBRANCH  27  29
ENDBRANCH  25  27
ENDBRANCH   7  25
TORSDOF 7
ENDMDL
