ROOT
HETATM    1  C5  UNL     1      24.599   0.793  53.315  1.00  0.00     0.244 C 
HETATM    2  O1  UNL     1      25.438   1.106  54.195  1.00  0.00    -0.268 OA
HETATM    3  N1  UNL     1      24.177   2.009  52.715  1.00  0.00    -0.320 N 
HETATM    4  C6  UNL     1      24.171   3.399  52.550  1.00  0.00     0.110 A 
HETATM    5  C7  UNL     1      23.920   4.676  52.227  1.00  0.00     0.012 C 
HETATM    6  C8  UNL     1      22.789   5.081  51.409  1.00  0.00     0.028 C 
HETATM    7  C9  UNL     1      22.481   6.306  50.979  1.00  0.00     0.033 C 
HETATM    8  C10 UNL     1      21.248   6.399  50.155  1.00  0.00     0.048 C 
HETATM    9  C11 UNL     1      21.593   5.925  48.897  1.00  0.00     0.119 C 
HETATM   10  N2  UNL     1      22.724   5.200  48.244  1.00  0.00    -0.260 NA
HETATM   11  C12 UNL     1      23.883   4.938  48.904  1.00  0.00     0.068 C 
HETATM   12  C13 UNL     1      24.010   3.494  49.274  1.00  0.00     0.030 C 
HETATM   13  C14 UNL     1      23.811   2.613  50.290  1.00  0.00     0.004 C 
HETATM   14  C15 UNL     1      23.316   2.620  51.704  1.00  0.00     0.147 A 
HETATM   15  C16 UNL     1      24.855   6.051  49.221  1.00  0.00     0.022 A 
HETATM   16  C17 UNL     1      25.974   6.111  48.450  1.00  0.00     0.060 A 
HETATM   17  C18 UNL     1      26.876   7.112  48.707  1.00  0.00     0.139 A 
HETATM   18  F1  UNL     1      27.958   7.057  47.859  1.00  0.00    -0.204 F 
HETATM   19  C19 UNL     1      26.679   8.037  49.706  1.00  0.00     0.074 A 
HETATM   20 CL1  UNL     1      27.906   9.254  49.922  1.00  0.00    -0.081 Cl
HETATM   21  C20 UNL     1      25.544   7.974  50.486  1.00  0.00     0.057 A 
HETATM   22  C21 UNL     1      24.598   6.992  50.278  1.00  0.00     0.047 A 
HETATM   23  N3  UNL     1      23.544   7.247  51.300  1.00  0.00    -0.355 N 
HETATM   24  H16 UNL     1      23.878   8.004  51.917  1.00  0.00     0.166 HD
ENDROOT
BRANCH   1  25
HETATM   25  C4  UNL     1      24.094  -0.511  52.911  1.00  0.00     0.072 C 
HETATM   26  C3  UNL     1      22.846  -0.884  53.106  1.00  0.00     0.013 C 
BRANCH  26  27
HETATM   27  C2  UNL     1      21.838  -0.011  53.755  1.00  0.00     0.241 C 
HETATM   28  C1  UNL     1      21.509  -0.471  55.160  1.00  0.00     0.047 C 
BRANCH  27  29
HETATM   29  N4  UNL     1      20.656  -0.014  52.906  1.00  0.00     0.087 N 
HETATM   30  C22 UNL     1      19.596  -0.830  53.417  1.00  0.00     0.310 C 
HETATM   31  C23 UNL     1      20.222   1.322  52.647  1.00  0.00     0.310 C 
ENDBRANCH  27  29
ENDBRANCH  26  27
ENDBRANCH   1  25
TORSDOF 3
ENDMDL
