ROOT
HETATM    1  C14 UNL     1      26.833  -0.810  52.634  1.00  0.00     0.102 C 
HETATM    2  C15 UNL     1      28.104  -0.915  53.081  1.00  0.00     0.204 C 
HETATM    3 CL1  UNL     1      29.759  -0.955  53.737  1.00  0.00    -0.261 Cl
ENDROOT
BRANCH   1   4
HETATM    4  C13 UNL     1      26.632   0.474  53.510  1.00  0.00     0.240 C 
HETATM    5  N4  UNL     1      25.163   0.640  53.268  1.00  0.00     0.088 N 
HETATM    6  C12 UNL     1      24.340  -0.521  53.673  1.00  0.00     0.426 C 
HETATM    7  C17 UNL     1      24.273   1.669  52.749  1.00  0.00     0.286 C 
HETATM    8  F1  UNL     1      26.146   0.549  53.440  1.00  0.00    -0.214 F 
HETATM    9  N3  UNL     1      22.974  -0.439  53.250  1.00  0.00    -0.252 NA
HETATM   10  C11 UNL     1      22.018   0.203  53.699  1.00  0.00     0.228 C 
HETATM   11  N2  UNL     1      20.668   0.714  53.825  1.00  0.00    -0.254 NA
HETATM   12  C10 UNL     1      20.441   1.721  52.985  1.00  0.00     0.120 C 
HETATM   13  C9  UNL     1      21.369   2.286  52.025  1.00  0.00     0.051 C 
HETATM   14  C8  UNL     1      22.481   2.460  51.282  1.00  0.00     0.049 C 
HETATM   15  C18 UNL     1      23.576   1.416  51.494  1.00  0.00     0.095 C 
HETATM   16  C16 UNL     1      26.345   1.566  54.235  1.00  0.00     0.244 C 
BRANCH  14  17
HETATM   17  O2  UNL     1      22.724   3.466  50.350  1.00  0.00    -0.355 OA
BRANCH  17  18
HETATM   18  C7  UNL     1      23.494   3.361  49.193  1.00  0.00     0.177 C 
BRANCH  18  19
HETATM   19  C6  UNL     1      23.741   4.756  48.680  1.00  0.00     0.052 C 
BRANCH  19  20
HETATM   20  C5  UNL     1      25.012   5.329  49.203  1.00  0.00     0.086 C 
HETATM   21  C2  UNL     1      25.451   6.562  48.479  1.00  0.00     0.028 C 
HETATM   22  C1  UNL     1      26.922   6.777  48.838  1.00  0.00     0.014 C 
HETATM   23  C3  UNL     1      24.614   7.750  48.836  1.00  0.00     0.176 C 
HETATM   24  O1  UNL     1      24.102   7.763  50.095  1.00  0.00    -0.372 OA
HETATM   25  C4  UNL     1      24.568   6.893  51.018  1.00  0.00     0.285 C 
HETATM   26  N1  UNL     1      24.918   5.571  50.608  1.00  0.00    -0.397 N 
HETATM   27  H9  UNL     1      24.443   4.805  51.133  1.00  0.00     0.155 HD
ENDBRANCH  19  20
ENDBRANCH  18  19
ENDBRANCH  17  18
ENDBRANCH  14  17
ENDBRANCH   1   4
TORSDOF 5
ENDMDL
