ROOT
HETATM    1  C1  UNL     1      23.937   0.279  53.041  1.00  0.00     0.020 C 
HETATM    2  C2  UNL     1      25.076   0.858  52.842  1.00  0.00    -0.047 A 
HETATM    3  C3  UNL     1      25.987   1.775  52.003  1.00  0.00    -0.039 A 
HETATM    4  C4  UNL     1      26.424   2.564  51.108  1.00  0.00     0.009 C 
HETATM    5  C13 UNL     1      26.471   1.153  53.247  1.00  0.00     0.085 A 
ENDROOT
BRANCH   4   6
HETATM    6  C5  UNL     1      25.848   3.213  49.899  1.00  0.00     0.006 C 
HETATM    7  C6  UNL     1      24.605   3.652  49.725  1.00  0.00     0.074 C 
BRANCH   7   8
HETATM    8  C7  UNL     1      23.540   3.591  50.689  1.00  0.00     0.243 C 
HETATM    9  O1  UNL     1      23.368   4.010  51.865  1.00  0.00    -0.268 OA
HETATM   10  N1  UNL     1      22.330   2.923  50.370  1.00  0.00    -0.348 N 
HETATM   11  C8  UNL     1      21.944   2.267  49.164  1.00  0.00     0.126 C 
HETATM   12  C12 UNL     1      21.085   2.618  51.026  1.00  0.00     0.130 C 
HETATM   13  C9  UNL     1      21.542   0.872  49.575  1.00  0.00     0.026 C 
HETATM   14  C10 UNL     1      21.139   1.084  51.007  1.00  0.00     0.001 C 
HETATM   15  C11 UNL     1      19.712   0.608  51.178  1.00  0.00     0.011 C 
ENDBRANCH   7   8
ENDBRANCH   4   6
BRANCH   5  16
HETATM   16  C14 UNL     1      27.375   0.013  53.221  1.00  0.00    -0.039 A 
HETATM   17  C15 UNL     1      26.937  -1.220  52.783  1.00  0.00     0.009 A 
HETATM   18  C16 UNL     1      27.613  -2.393  52.679  1.00  0.00     0.001 A 
HETATM   19  C17 UNL     1      28.925  -2.292  53.083  1.00  0.00     0.001 A 
HETATM   20  C18 UNL     1      29.559  -1.129  53.557  1.00  0.00     0.007 A 
HETATM   21  C19 UNL     1      28.698  -0.009  53.593  1.00  0.00    -0.055 A 
HETATM   22  C20 UNL     1      29.405   1.203  54.092  1.00  0.00     0.049 C 
ENDBRANCH   5  16
TORSDOF 3
ENDMDL
