ROOT
HETATM    1  C10 UNL     1      23.330   3.564  52.184  1.00  0.00     0.139 A 
HETATM    2  N4  UNL     1      22.064   3.986  52.115  1.00  0.00    -0.224 NA
HETATM    3  C11 UNL     1      21.004   3.196  52.357  1.00  0.00     0.235 A 
HETATM    4  N5  UNL     1      21.151   1.881  52.696  1.00  0.00    -0.241 NA
HETATM    5  C12 UNL     1      22.406   1.378  52.785  1.00  0.00     0.072 A 
HETATM    6  C13 UNL     1      22.545   0.060  53.129  1.00  0.00     0.033 A 
HETATM    7  C14 UNL     1      23.826  -0.447  53.222  1.00  0.00     0.014 A 
HETATM    8  C15 UNL     1      24.939   0.364  52.973  1.00  0.00    -0.022 A 
HETATM    9  C20 UNL     1      24.710   1.679  52.633  1.00  0.00     0.030 A 
HETATM   10  C21 UNL     1      23.454   2.235  52.527  1.00  0.00     0.039 A 
ENDROOT
BRANCH   1  11
HETATM   11  N3  UNL     1      24.435   4.416  51.918  1.00  0.00    -0.350 N 
HETATM   12  H12 UNL     1      25.117   4.762  52.589  1.00  0.00     0.163 HD
BRANCH  11  13
HETATM   13  C9  UNL     1      24.600   4.841  50.508  1.00  0.00     0.201 A 
HETATM   14  C2  UNL     1      24.842   6.301  50.464  1.00  0.00    -0.017 A 
HETATM   15  C1  UNL     1      23.694   6.918  51.215  1.00  0.00     0.050 C 
HETATM   16  C3  UNL     1      25.590   7.351  50.076  1.00  0.00     0.031 A 
HETATM   17  C4  UNL     1      26.803   7.705  49.354  1.00  0.00     0.029 A 
HETATM   18  C5  UNL     1      27.833   7.224  48.689  1.00  0.00     0.002 A 
HETATM   19  C6  UNL     1      28.361   5.954  48.278  1.00  0.00    -0.002 A 
HETATM   20  C7  UNL     1      27.848   4.764  48.512  1.00  0.00     0.002 A 
HETATM   21  C8  UNL     1      26.599   4.497  49.260  1.00  0.00     0.319 A 
HETATM   22  N2  UNL     1      25.590   4.087  49.853  1.00  0.00    -0.414 NA
BRANCH  16  23
HETATM   23  N1  UNL     1      24.883   8.507  50.594  1.00  0.00    -0.399 N 
HETATM   24  H4  UNL     1      24.398   9.357  50.896  1.00  0.00     0.156 HD
HETATM   25  H5  UNL     1      24.394   9.394  50.868  1.00  0.00     0.156 HD
ENDBRANCH  16  23
ENDBRANCH  11  13
ENDBRANCH   1  11
BRANCH   8  26
HETATM   26  C16 UNL     1      26.264  -0.235  53.094  1.00  0.00     0.010 A 
HETATM   27  C17 UNL     1      26.568  -1.571  52.845  1.00  0.00     0.152 A 
HETATM   28  N6  UNL     1      27.900  -1.678  53.079  1.00  0.00    -0.185 NA
HETATM   29  N7  UNL     1      28.372  -0.491  53.444  1.00  0.00    -0.285 N 
HETATM   30  C18 UNL     1      29.752  -0.181  53.781  1.00  0.00     0.179 C 
HETATM   31  C19 UNL     1      27.418   0.457  53.477  1.00  0.00     0.125 A 
ENDBRANCH   8  26
TORSDOF 4
ENDMDL
