ROOT
HETATM    1  C3  UNL     1      24.347  -0.573  54.087  1.00  0.00    -0.022 A 
HETATM    2  C4  UNL     1      23.677  -1.170  55.157  1.00  0.00     0.014 A 
HETATM    3  C5  UNL     1      22.289  -1.192  55.131  1.00  0.00     0.033 A 
HETATM    4  C6  UNL     1      21.598  -0.637  54.073  1.00  0.00     0.063 A 
HETATM    5  C7  UNL     1      22.271  -0.050  53.022  1.00  0.00     0.041 A 
HETATM    6  C8  UNL     1      23.662  -0.014  53.024  1.00  0.00     0.030 A 
HETATM    7  C9  UNL     1      21.534   0.527  51.919  1.00  0.00     0.162 A 
HETATM    8  N4  UNL     1      20.231   0.519  51.869  1.00  0.00    -0.140 NA
HETATM    9  N5  UNL     1      19.488  -0.060  52.900  1.00  0.00    -0.217 N 
HETATM   10  N6  UNL     1      20.167  -0.638  54.003  1.00  0.00    -0.284 N 
HETATM   11  H12 UNL     1      18.457  -0.148  53.010  1.00  0.00     0.210 HD
HETATM   12  H13 UNL     1      19.718  -1.103  54.841  1.00  0.00     0.188 HD
ENDROOT
BRANCH   7  13
HETATM   13  N2  UNL     1      22.196   1.137  50.825  1.00  0.00    -0.339 N 
HETATM   14  H5  UNL     1      22.243   0.558  49.952  1.00  0.00     0.167 HD
BRANCH  13  15
HETATM   15  C10 UNL     1      22.786   2.425  50.826  1.00  0.00     0.034 A 
HETATM   16  C11 UNL     1      22.246   3.397  51.670  1.00  0.00     0.032 A 
HETATM   17  C12 UNL     1      22.711   4.687  51.775  1.00  0.00     0.035 A 
HETATM   18  C13 UNL     1      23.784   5.081  51.008  1.00  0.00     0.066 A 
HETATM   19  N3  UNL     1      24.202   6.350  51.148  1.00  0.00    -0.260 NA
HETATM   20  C17 UNL     1      24.345   4.149  50.162  1.00  0.00    -0.005 A 
HETATM   21  C14 UNL     1      25.249   6.803  50.427  1.00  0.00     0.117 A 
HETATM   22  C15 UNL     1      25.833   5.873  49.563  1.00  0.00     0.020 A 
HETATM   23  C16 UNL     1      25.411   4.567  49.413  1.00  0.00     0.015 A 
HETATM   24  C18 UNL     1      23.852   2.866  50.084  1.00  0.00     0.043 A 
ENDBRANCH  13  15
ENDBRANCH   7  13
BRANCH   1  25
HETATM   25  C2  UNL     1      25.825  -0.521  54.061  1.00  0.00     0.013 A 
HETATM   26  C1  UNL     1      26.604   0.246  54.935  1.00  0.00     0.164 A 
HETATM   27  N1  UNL     1      27.872  -0.000  54.564  1.00  0.00    -0.106 N 
HETATM   28  F1  UNL     1      28.931   0.567  55.182  1.00  0.00    -0.075 F 
HETATM   29  N7  UNL     1      27.923  -0.846  53.545  1.00  0.00    -0.154 NA
HETATM   30  C19 UNL     1      26.655  -1.203  53.192  1.00  0.00     0.155 A 
ENDBRANCH   1  25
TORSDOF 3
ENDMDL
