ROOT
HETATM    1  C2  UNL     1      26.618  -0.928  52.715  1.00  0.00     0.057 A 
HETATM    2  C3  UNL     1      27.233   0.024  51.955  1.00  0.00     0.042 A 
HETATM    3  C4  UNL     1      26.300   0.983  52.048  1.00  0.00     0.089 A 
HETATM    4  C5  UNL     1      25.362   1.935  52.144  1.00  0.00    -0.043 A 
HETATM    5  C15 UNL     1      24.794   0.940  52.899  1.00  0.00     0.070 A 
HETATM    6  C16 UNL     1      25.608  -0.098  52.910  1.00  0.00     0.053 A 
HETATM    7  C17 UNL     1      25.190  -0.658  54.269  1.00  0.00     0.049 C 
HETATM    8  C18 UNL     1      26.341  -0.101  55.201  1.00  0.00     0.202 C 
HETATM    9  O4  UNL     1      26.295   1.285  54.952  1.00  0.00    -0.279 OA
HETATM   10  N2  UNL     1      27.376   1.556  54.133  1.00  0.00    -0.261 N 
HETATM   11  C19 UNL     1      27.876   2.377  53.027  1.00  0.00     0.225 C 
HETATM   12  N3  UNL     1      27.280   2.066  51.836  1.00  0.00    -0.265 NA
HETATM   13  H22 UNL     1      28.214   0.969  54.317  1.00  0.00     0.195 HD
ENDROOT
BRANCH   4  14
HETATM   14  C6  UNL     1      24.972   3.296  51.729  1.00  0.00     0.153 C 
BRANCH  14  15
HETATM   15  N1  UNL     1      24.853   3.271  50.295  1.00  0.00    -0.386 N 
HETATM   16  H7  UNL     1      24.290   2.576  49.773  1.00  0.00     0.160 HD
BRANCH  15  17
HETATM   17  C7  UNL     1      25.586   4.303  49.658  1.00  0.00     0.031 A 
HETATM   18  C8  UNL     1      26.854   3.924  49.180  1.00  0.00     0.032 A 
HETATM   19  C9  UNL     1      27.626   4.937  48.630  1.00  0.00     0.042 A 
HETATM   20  C10 UNL     1      27.273   6.269  48.510  1.00  0.00     0.101 A 
HETATM   21  C12 UNL     1      26.002   6.627  48.992  1.00  0.00     0.103 A 
HETATM   22  C14 UNL     1      25.208   5.615  49.547  1.00  0.00     0.068 A 
BRANCH  20  23
HETATM   23  O2  UNL     1      28.042   7.267  47.968  1.00  0.00    -0.353 OA
HETATM   24  C11 UNL     1      29.200   7.813  48.510  1.00  0.00     0.210 C 
ENDBRANCH  20  23
BRANCH  21  25
HETATM   25  O3  UNL     1      25.618   7.913  48.895  1.00  0.00    -0.353 OA
HETATM   26  C13 UNL     1      25.569   8.950  49.809  1.00  0.00     0.210 C 
ENDBRANCH  21  25
ENDBRANCH  15  17
ENDBRANCH  14  15
ENDBRANCH   4  14
BRANCH   1  27
HETATM   27  O1  UNL     1      26.981  -2.201  53.074  1.00  0.00    -0.359 OA
HETATM   28  C1  UNL     1      28.306  -2.636  53.049  1.00  0.00     0.209 C 
ENDBRANCH   1  27
TORSDOF 6
ENDMDL
