ROOT
HETATM    1  C5  UNL     1      25.848   1.199  53.702  1.00  0.00     0.196 C 
HETATM    2  C6  UNL     1      26.709   2.036  52.820  1.00  0.00     0.185 C 
HETATM    3  N1  UNL     1      26.018   2.836  51.892  1.00  0.00    -0.273 NA
HETATM    4  C7  UNL     1      24.894   3.351  51.773  1.00  0.00     0.118 C 
HETATM    5  C14 UNL     1      23.537   3.513  52.405  1.00  0.00     0.225 C 
HETATM    6  N4  UNL     1      22.510   2.754  51.709  1.00  0.00    -0.296 NA
HETATM    7  C15 UNL     1      22.660   1.444  51.697  1.00  0.00     0.113 C 
HETATM    8  C16 UNL     1      23.827   0.756  52.368  1.00  0.00     0.172 C 
HETATM    9  N5  UNL     1      24.897   0.372  53.008  1.00  0.00    -0.302 NA
ENDROOT
BRANCH   4  10
HETATM   10  N2  UNL     1      25.038   4.003  50.515  1.00  0.00    -0.335 N 
HETATM   11  C8  UNL     1      25.743   3.260  49.456  1.00  0.00     0.154 C 
HETATM   12  C9  UNL     1      26.915   4.153  49.122  1.00  0.00    -0.005 C 
HETATM   13  C10 UNL     1      26.579   5.425  48.848  1.00  0.00    -0.082 C 
HETATM   14  C11 UNL     1      27.683   6.356  48.512  1.00  0.00     0.043 C 
HETATM   15  C12 UNL     1      25.140   5.807  48.898  1.00  0.00     0.090 C 
HETATM   16  C13 UNL     1      24.550   5.332  50.206  1.00  0.00     0.324 C 
BRANCH  16  17
HETATM   17  N3  UNL     1      24.842   6.306  51.213  1.00  0.00     0.101 N 
HETATM   18  H18 UNL     1      24.979   7.231  50.708  1.00  0.00     0.315 HD
HETATM   19  H19 UNL     1      25.764   6.067  51.653  1.00  0.00     0.315 HD
ENDBRANCH  16  17
ENDBRANCH   4  10
BRANCH   1  20
HETATM   20  C4  UNL     1      26.570   0.307  54.632  1.00  0.00     0.174 C 
HETATM   21  O1  UNL     1      26.246  -0.500  55.539  1.00  0.00    -0.291 OA
BRANCH  20  22
HETATM   22  C3  UNL     1      28.004   0.416  54.415  1.00  0.00     0.048 C 
HETATM   23  C2  UNL     1      28.563  -0.678  53.882  1.00  0.00    -0.027 C 
HETATM   24  C1  UNL     1      30.027  -0.797  53.570  1.00  0.00     0.036 C 
ENDBRANCH  20  22
ENDBRANCH   1  20
TORSDOF 4
ENDMDL
