ROOT
HETATM    1  C7  UNL     1      24.061  -0.244  53.783  1.00  0.00     0.123 A 
HETATM    2  N4  UNL     1      24.063  -1.070  54.819  1.00  0.00    -0.227 NA
HETATM    3  C8  UNL     1      22.878  -1.383  55.344  1.00  0.00     0.235 A 
HETATM    4  N5  UNL     1      21.630  -0.975  54.969  1.00  0.00    -0.244 NA
HETATM    5  C9  UNL     1      21.398  -0.199  54.022  1.00  0.00     0.068 A 
HETATM    6  C10 UNL     1      22.708   0.206  53.369  1.00  0.00     0.107 A 
HETATM    7  C15 UNL     1      21.210   0.511  53.153  1.00  0.00     0.018 A 
ENDROOT
BRANCH   1   8
HETATM    8  N3  UNL     1      25.175   0.233  53.061  1.00  0.00    -0.349 N 
HETATM    9  H8  UNL     1      25.483   0.510  52.140  1.00  0.00     0.163 HD
BRANCH   8  10
HETATM   10  C6  UNL     1      26.283   0.389  53.921  1.00  0.00     0.258 A 
HETATM   11  C2  UNL     1      27.472  -0.436  53.507  1.00  0.00     0.072 A 
HETATM   12  N1  UNL     1      27.245  -1.691  53.317  1.00  0.00    -0.295 NA
HETATM   13  C3  UNL     1      28.807   0.122  53.323  1.00  0.00     0.032 A 
HETATM   14  C1  UNL     1      28.237  -2.647  52.920  1.00  0.00     0.178 C 
HETATM   15  C4  UNL     1      29.061   1.415  53.493  1.00  0.00     0.021 A 
HETATM   16  C5  UNL     1      27.887   2.211  53.878  1.00  0.00     0.113 A 
HETATM   17  N2  UNL     1      26.686   1.779  54.063  1.00  0.00    -0.270 NA
ENDBRANCH   8  10
ENDBRANCH   1   8
BRANCH   6  18
HETATM   18  C11 UNL     1      22.570   1.204  52.134  1.00  0.00     0.085 A 
HETATM   19  C12 UNL     1      23.144   2.813  52.411  1.00  0.00     0.048 A 
HETATM   20  O1  UNL     1      22.571   2.496  51.030  1.00  0.00     0.000 OA
HETATM   21  P1  UNL     1      23.182   2.460  52.821  1.00  0.00     0.026 P 
HETATM   22  C13 UNL     1      23.400   2.182  49.923  1.00  0.00     0.000 C 
BRANCH  21  23
HETATM   23  O2  UNL     1      23.038   4.258  50.933  1.00  0.00    -0.369 OA
HETATM   24  C14 UNL     1      23.339   5.054  52.065  1.00  0.00     0.207 C 
ENDBRANCH  21  23
ENDBRANCH   6  18
TORSDOF 5
ENDMDL
