ROOT
HETATM    1  C8  UNL     1      25.062   3.177  51.152  1.00  0.00     0.133 A 
HETATM    2  C9  UNL     1      24.119   3.566  52.120  1.00  0.00     0.070 A 
HETATM    3  C10 UNL     1      24.395   3.091  53.385  1.00  0.00     0.123 A 
HETATM    4  N2  UNL     1      25.451   2.336  53.676  1.00  0.00    -0.241 NA
HETATM    5  C11 UNL     1      26.343   1.974  52.741  1.00  0.00     0.161 A 
HETATM    6  N3  UNL     1      26.134   2.407  51.464  1.00  0.00    -0.211 NA
ENDROOT
BRANCH   1   7
HETATM    7  N1  UNL     1      24.909   3.625  49.787  1.00  0.00    -0.336 N 
HETATM    8  C7  UNL     1      23.783   3.090  49.052  1.00  0.00     0.158 C 
BRANCH   7   9
HETATM    9  C6  UNL     1      25.850   4.559  49.244  1.00  0.00     0.037 A 
HETATM   10  C5  UNL     1      25.384   5.815  48.892  1.00  0.00     0.031 A 
HETATM   11  C4  UNL     1      26.316   6.701  48.358  1.00  0.00     0.018 A 
HETATM   12  C3  UNL     1      27.653   6.423  48.156  1.00  0.00     0.018 A 
HETATM   13  C2  UNL     1      28.703   7.155  47.649  1.00  0.00     0.039 A 
HETATM   14  C19 UNL     1      28.081   5.147  48.524  1.00  0.00     0.091 A 
HETATM   15  C1  UNL     1      28.580   8.557  47.158  1.00  0.00     0.071 C 
HETATM   16  N5  UNL     1      29.775   6.315  47.711  1.00  0.00    -0.277 N 
HETATM   17  N4  UNL     1      29.390   5.163  48.220  1.00  0.00    -0.172 NA
HETATM   18  C20 UNL     1      31.099   6.697  47.271  1.00  0.00     0.179 C 
HETATM   19  C18 UNL     1      27.167   4.233  49.063  1.00  0.00     0.064 A 
ENDBRANCH   7   9
ENDBRANCH   1   7
BRANCH   5  20
HETATM   20  C12 UNL     1      27.517   1.148  53.049  1.00  0.00     0.009 A 
HETATM   21  C13 UNL     1      28.682   1.573  53.569  1.00  0.00    -0.007 A 
HETATM   22  C14 UNL     1      29.592   0.404  53.716  1.00  0.00     0.070 A 
HETATM   23  C15 UNL     1      28.731  -0.677  53.203  1.00  0.00    -0.016 A 
HETATM   24  C17 UNL     1      27.535  -0.296  52.810  1.00  0.00     0.025 A 
BRANCH  23  25
HETATM   25  C16 UNL     1      29.155  -2.059  53.140  1.00  0.00     0.265 C 
HETATM   26  O1  UNL     1      28.736  -3.151  53.539  1.00  0.00    -0.302 OA
ENDBRANCH  23  25
ENDBRANCH   5  20
TORSDOF 4
ENDMDL
