ROOT
HETATM    1  C9  UNL     1      24.373   1.731  51.343  1.00  0.00     0.161 A 
HETATM    2  C10 UNL     1      23.082   1.029  51.561  1.00  0.00     0.119 A 
HETATM    3  N2  UNL     1      22.745   0.219  52.526  1.00  0.00    -0.274 NA
HETATM    4  C11 UNL     1      23.691  -0.096  53.566  1.00  0.00     0.125 A 
HETATM    5  C12 UNL     1      24.909   0.421  53.568  1.00  0.00    -0.008 A 
HETATM    6  C13 UNL     1      25.882   0.099  54.634  1.00  0.00     0.212 C 
HETATM    7  O3  UNL     1      26.678   1.243  54.775  1.00  0.00    -0.353 OA
HETATM    8  C14 UNL     1      27.413   1.460  53.608  1.00  0.00     0.284 C 
HETATM    9  C16 UNL     1      26.481   1.820  52.514  1.00  0.00     0.043 C 
HETATM   10  C17 UNL     1      25.245   1.324  52.469  1.00  0.00    -0.019 A 
ENDROOT
BRANCH   1  11
HETATM   11  N1  UNL     1      24.211   3.159  51.240  1.00  0.00    -0.345 N 
HETATM   12  C3  UNL     1      24.777   4.160  50.369  1.00  0.00     0.281 A 
HETATM   13  C4  UNL     1      24.207   5.479  50.775  1.00  0.00     0.094 A 
HETATM   14  C6  UNL     1      23.357   5.888  51.695  1.00  0.00     0.038 A 
HETATM   15  C7  UNL     1      22.853   4.789  52.511  1.00  0.00     0.020 A 
HETATM   16  C8  UNL     1      23.272   3.536  52.270  1.00  0.00     0.090 A 
BRANCH  12  17
HETATM   17  O1  UNL     1      26.146   4.168  50.406  1.00  0.00    -0.361 OA
BRANCH  17  18
HETATM   18  C2  UNL     1      26.751   3.847  49.228  1.00  0.00     0.166 C 
HETATM   19  C1  UNL     1      27.656   4.865  48.631  1.00  0.00     0.033 C 
ENDBRANCH  17  18
ENDBRANCH  12  17
BRANCH  13  20
HETATM   20  O2  UNL     1      24.791   6.399  49.902  1.00  0.00    -0.356 OA
HETATM   21  C5  UNL     1      25.451   7.562  50.381  1.00  0.00     0.209 C 
ENDBRANCH  13  20
ENDBRANCH   1  11
BRANCH   8  22
HETATM   22  O4  UNL     1      28.407   2.386  53.796  1.00  0.00    -0.363 OA
HETATM   23  C15 UNL     1      29.469   1.933  54.586  1.00  0.00     0.205 C 
ENDBRANCH   8  22
TORSDOF 5
ENDMDL
