ROOT
HETATM    1  C3  UNL     1      24.442   2.795  51.507  1.00  0.00     0.135 A 
HETATM    2  N2  UNL     1      24.202   3.363  50.324  1.00  0.00    -0.224 NA
HETATM    3  C4  UNL     1      25.099   3.646  49.379  1.00  0.00     0.234 A 
HETATM    4  N3  UNL     1      26.375   3.320  49.651  1.00  0.00    -0.253 NA
HETATM    5  C5  UNL     1      26.662   2.747  50.829  1.00  0.00     0.131 A 
HETATM    6  C6  UNL     1      25.729   2.445  51.834  1.00  0.00     0.042 A 
ENDROOT
BRANCH   6   7
HETATM    7  C7  UNL     1      26.123   1.829  53.117  1.00  0.00     0.289 C 
BRANCH   7   8
HETATM    8  N4  UNL     1      26.724   2.709  54.069  1.00  0.00     0.091 NA
HETATM    9  H9  UNL     1      27.735   2.551  54.174  1.00  0.00     0.314 HD
HETATM   10  H10 UNL     1      26.498   3.694  54.023  1.00  0.00     0.314 HD
ENDBRANCH   7   8
BRANCH   7  11
HETATM   11  C8  UNL     1      26.722   0.489  53.014  1.00  0.00    -0.021 A 
HETATM   12  C9  UNL     1      26.178  -0.690  52.557  1.00  0.00     0.012 A 
HETATM   13  C10 UNL     1      26.823  -1.885  52.518  1.00  0.00     0.043 A 
HETATM   14  C11 UNL     1      28.118  -1.995  52.953  1.00  0.00     0.116 A 
HETATM   15  F1  UNL     1      28.754  -3.185  52.913  1.00  0.00    -0.206 F 
HETATM   16  C12 UNL     1      28.754  -0.869  53.430  1.00  0.00     0.043 A 
HETATM   17  C13 UNL     1      28.048   0.315  53.444  1.00  0.00     0.012 A 
ENDBRANCH   7  11
ENDBRANCH   6   7
BRANCH   1  18
HETATM   18  N1  UNL     1      23.342   2.540  52.364  1.00  0.00    -0.366 N 
HETATM   19  H5  UNL     1      23.473   2.893  53.330  1.00  0.00     0.161 HD
BRANCH  18  20
HETATM   20  C2  UNL     1      22.080   1.888  52.185  1.00  0.00     0.112 C 
HETATM   21  C1  UNL     1      20.964   2.923  52.360  1.00  0.00     0.037 C 
BRANCH  20  22
HETATM   22  C14 UNL     1      21.813   0.701  52.979  1.00  0.00    -0.036 A 
HETATM   23  C15 UNL     1      20.638   0.009  53.165  1.00  0.00     0.009 A 
HETATM   24  C16 UNL     1      20.463  -1.115  53.931  1.00  0.00     0.001 A 
HETATM   25  C17 UNL     1      21.544  -1.633  54.594  1.00  0.00     0.000 A 
HETATM   26  C18 UNL     1      22.772  -1.033  54.488  1.00  0.00     0.001 A 
HETATM   27  C19 UNL     1      22.851   0.091  53.697  1.00  0.00     0.009 A 
ENDBRANCH  20  22
ENDBRANCH  18  20
ENDBRANCH   1  18
TORSDOF 6
ENDMDL
