ROOT
HETATM    1  C7  UNL     1      25.920  -0.158  53.796  1.00  0.00    -0.064 C 
HETATM    2  C8  UNL     1      25.727   1.113  54.198  1.00  0.00     0.023 C 
HETATM    3  C9  UNL     1      26.276   2.487  54.086  1.00  0.00     0.113 C 
HETATM    4  N1  UNL     1      27.503   2.778  53.785  1.00  0.00    -0.276 NA
HETATM    5  C10 UNL     1      28.758   2.227  53.464  1.00  0.00     0.317 C 
HETATM    6  O2  UNL     1      28.836   1.003  52.899  1.00  0.00    -0.360 OA
HETATM    7  C11 UNL     1      28.327  -0.038  53.627  1.00  0.00     0.158 A 
HETATM    8  C12 UNL     1      29.357  -1.084  53.776  1.00  0.00     0.006 A 
HETATM    9  C13 UNL     1      29.367  -2.350  53.401  1.00  0.00    -0.002 A 
HETATM   10  C14 UNL     1      28.127  -2.776  52.715  1.00  0.00    -0.003 A 
HETATM   11  C15 UNL     1      27.137  -1.911  52.530  1.00  0.00    -0.015 A 
HETATM   12  C16 UNL     1      27.069  -0.511  52.923  1.00  0.00     0.070 A 
ENDROOT
BRANCH   1  13
HETATM   13  C6  UNL     1      24.855  -1.021  54.388  1.00  0.00     0.073 C 
BRANCH  13  14
HETATM   14  C5  UNL     1      23.499  -0.747  53.922  1.00  0.00    -0.054 A 
HETATM   15  C4  UNL     1      22.566  -1.241  54.850  1.00  0.00     0.010 A 
HETATM   16  C3  UNL     1      21.185  -1.137  54.651  1.00  0.00     0.037 A 
HETATM   17  C2  UNL     1      20.689  -0.534  53.516  1.00  0.00     0.068 A 
HETATM   18  C18 UNL     1      21.594  -0.046  52.600  1.00  0.00     0.037 A 
HETATM   19  C17 UNL     1      22.945  -0.157  52.813  1.00  0.00     0.010 A 
BRANCH  17  20
HETATM   20  O1  UNL     1      19.323  -0.426  53.311  1.00  0.00    -0.356 OA
HETATM   21  C1  UNL     1      18.864  -0.114  52.013  1.00  0.00     0.210 C 
ENDBRANCH  17  20
ENDBRANCH  13  14
ENDBRANCH   1  13
TORSDOF 3
ENDMDL
