ROOT
HETATM    1  C1  UNL     1      25.461  -0.868  54.208  1.00  0.00     0.304 A 
HETATM    2  C2  UNL     1      24.404  -0.036  53.567  1.00  0.00    -0.008 A 
HETATM    3  C9  UNL     1      24.942   0.995  52.927  1.00  0.00     0.028 A 
HETATM    4  C10 UNL     1      26.392   0.969  53.066  1.00  0.00     0.037 A 
HETATM    5  C11 UNL     1      27.366   1.820  52.582  1.00  0.00     0.137 A 
HETATM    6  N3  UNL     1      28.649   1.532  52.881  1.00  0.00    -0.224 NA
HETATM    7  C19 UNL     1      28.937   0.440  53.630  1.00  0.00     0.235 A 
HETATM    8  N4  UNL     1      27.987  -0.400  54.109  1.00  0.00    -0.243 NA
HETATM    9  C20 UNL     1      26.700  -0.139  53.827  1.00  0.00     0.087 A 
ENDROOT
BRANCH   5  10
HETATM   10  N2  UNL     1      27.030   2.960  51.797  1.00  0.00    -0.370 N 
HETATM   11  H10 UNL     1      27.146   3.894  52.199  1.00  0.00     0.161 HD
BRANCH  10  12
HETATM   12  C12 UNL     1      26.536   2.767  50.447  1.00  0.00     0.160 C 
BRANCH  12  13
HETATM   13  C13 UNL     1      26.285   4.035  49.734  1.00  0.00    -0.040 A 
HETATM   14  C14 UNL     1      25.060   4.665  49.646  1.00  0.00     0.012 A 
HETATM   15  C15 UNL     1      25.006   5.855  48.934  1.00  0.00     0.043 A 
HETATM   16  C16 UNL     1      26.127   6.392  48.336  1.00  0.00     0.116 A 
HETATM   17  F1  UNL     1      26.030   7.563  47.645  1.00  0.00    -0.206 F 
HETATM   18  C17 UNL     1      27.356   5.764  48.423  1.00  0.00     0.043 A 
HETATM   19  C18 UNL     1      27.409   4.583  49.130  1.00  0.00     0.012 A 
ENDBRANCH  12  13
ENDBRANCH  10  12
ENDBRANCH   5  10
BRANCH   2  20
HETATM   20  C3  UNL     1      22.957  -0.334  53.643  1.00  0.00    -0.027 A 
HETATM   21  C4  UNL     1      22.491  -1.394  54.418  1.00  0.00     0.015 A 
HETATM   22  C5  UNL     1      21.111  -1.618  54.444  1.00  0.00     0.037 A 
HETATM   23  C6  UNL     1      20.219  -0.817  53.726  1.00  0.00     0.065 A 
HETATM   24  C7  UNL     1      20.699   0.221  52.971  1.00  0.00     0.037 A 
HETATM   25  C8  UNL     1      22.064   0.446  52.942  1.00  0.00     0.015 A 
BRANCH  23  26
HETATM   26  O1  UNL     1      18.875  -1.161  53.850  1.00  0.00    -0.361 OA
HETATM   27  H6  UNL     1      18.122  -0.496  53.970  1.00  0.00     0.217 HD
ENDBRANCH  23  26
ENDBRANCH   2  20
BRANCH   1  28
HETATM   28  N1  UNL     1      25.367  -0.746  55.668  1.00  0.00     0.093 N 
HETATM   29  H1  UNL     1      24.599  -1.410  55.954  1.00  0.00     0.314 HD
HETATM   30  H2  UNL     1      26.271  -0.989  56.118  1.00  0.00     0.314 HD
ENDBRANCH   1  28
TORSDOF 6
ENDMDL
