ROOT
HETATM    1  N3  UNL     1      24.313   3.326  51.763  1.00  0.00    -0.301 N 
HETATM    2  H12 UNL     1      23.460   3.844  52.066  1.00  0.00     0.186 HD
ENDROOT
BRANCH   1   3
HETATM    3  N2  UNL     1      25.445   3.851  51.154  1.00  0.00    -0.259 N 
HETATM    4  C7  UNL     1      25.355   4.137  49.767  1.00  0.00     0.315 C 
HETATM    5  O1  UNL     1      24.299   3.926  49.115  1.00  0.00    -0.256 OA
HETATM    6  H11 UNL     1      26.246   3.976  51.798  1.00  0.00     0.191 HD
BRANCH   4   7
HETATM    7  C6  UNL     1      26.558   4.684  49.166  1.00  0.00    -0.002 C 
HETATM    8  C5  UNL     1      27.571   5.134  48.684  1.00  0.00    -0.066 C 
BRANCH   8   9
HETATM    9  C4  UNL     1      28.815   5.660  48.106  1.00  0.00     0.365 C 
BRANCH   9  10
HETATM   10  N1  UNL     1      28.510   6.963  47.603  1.00  0.00     0.094 N 
HETATM   11  C3  UNL     1      28.183   7.917  48.622  1.00  0.00     0.310 C 
BRANCH  10  12
HETATM   12  C2  UNL     1      29.664   7.453  46.873  1.00  0.00     0.268 C 
HETATM   13  C1  UNL     1      30.893   6.654  47.226  1.00  0.00     0.037 C 
ENDBRANCH  10  12
ENDBRANCH   9  10
ENDBRANCH   8   9
ENDBRANCH   4   7
ENDBRANCH   1   3
BRANCH   1  14
HETATM   14  C8  UNL     1      24.042   1.977  52.117  1.00  0.00     0.033 C 
HETATM   15  C9  UNL     1      24.675   1.352  53.104  1.00  0.00    -0.030 C 
HETATM   16  C10 UNL     1      25.721   1.967  53.946  1.00  0.00     0.048 C 
HETATM   17  C11 UNL     1      24.181  -0.050  53.225  1.00  0.00     0.173 A 
HETATM   18  N4  UNL     1      24.648  -0.763  54.359  1.00  0.00    -0.285 NA
HETATM   19  C14 UNL     1      22.707  -0.072  53.360  1.00  0.00    -0.003 A 
HETATM   20  C12 UNL     1      23.707  -1.198  55.111  1.00  0.00     0.143 A 
HETATM   21  C13 UNL     1      22.386  -0.817  54.569  1.00  0.00     0.073 A 
HETATM   22  N5  UNL     1      21.206  -1.036  54.976  1.00  0.00    -0.298 NA
HETATM   23  H18 UNL     1      20.364  -0.694  54.472  1.00  0.00     0.187 HD
HETATM   24  C15 UNL     1      22.077   0.586  52.392  1.00  0.00    -0.009 C 
HETATM   25  C16 UNL     1      22.994   1.219  51.361  1.00  0.00     0.086 C 
ENDBRANCH   1  14
TORSDOF 6
ENDMDL
