ROOT
HETATM    1  C5  UNL     1      26.352  -0.257  53.690  1.00  0.00     0.092 A 
HETATM    2  N1  UNL     1      25.705  -0.958  54.666  1.00  0.00    -0.242 NA
HETATM    3  C6  UNL     1      24.356  -0.886  54.652  1.00  0.00     0.235 A 
HETATM    4  N2  UNL     1      23.662  -0.177  53.744  1.00  0.00    -0.223 NA
HETATM    5  C7  UNL     1      24.260   0.528  52.766  1.00  0.00     0.149 A 
HETATM    6  C14 UNL     1      25.658   0.497  52.724  1.00  0.00     0.107 A 
HETATM    7 CL1  UNL     1      26.531   1.380  51.490  1.00  0.00    -0.078 Cl
ENDROOT
BRANCH   5   8
HETATM    8  N3  UNL     1      23.511   1.274  51.813  1.00  0.00    -0.369 N 
HETATM    9  H11 UNL     1      23.561   0.979  50.814  1.00  0.00     0.161 HD
BRANCH   8  10
HETATM   10  C8  UNL     1      22.723   2.399  52.291  1.00  0.00     0.157 C 
BRANCH  10  11
HETATM   11  C9  UNL     1      23.318   3.668  51.860  1.00  0.00    -0.044 A 
HETATM   12  C10 UNL     1      23.381   4.732  52.645  1.00  0.00     0.092 A 
HETATM   13  N4  UNL     1      23.993   5.876  52.061  1.00  0.00    -0.375 N 
HETATM   14  C11 UNL     1      24.510   5.915  50.736  1.00  0.00     0.084 A 
HETATM   15  H15 UNL     1      24.068   6.737  52.633  1.00  0.00     0.164 HD
HETATM   16  C12 UNL     1      24.391   4.795  50.044  1.00  0.00    -0.005 A 
HETATM   17  C13 UNL     1      23.793   3.502  50.463  1.00  0.00     0.065 A 
ENDBRANCH  10  11
ENDBRANCH   8  10
ENDBRANCH   5   8
BRANCH   1  18
HETATM   18  C3  UNL     1      27.808  -0.320  53.685  1.00  0.00     0.198 C 
BRANCH  18  19
HETATM   19  C2  UNL     1      28.569   0.269  54.796  1.00  0.00     0.205 C 
BRANCH  19  20
HETATM   20  O1  UNL     1      28.649   1.606  54.889  1.00  0.00    -0.393 OA
HETATM   21  C1  UNL     1      28.964   2.378  53.832  1.00  0.00     0.201 C 
ENDBRANCH  19  20
ENDBRANCH  18  19
BRANCH  18  22
HETATM   22  O2  UNL     1      28.273  -1.638  53.434  1.00  0.00    -0.382 OA
HETATM   23  C4  UNL     1      29.660  -1.555  53.433  1.00  0.00     0.202 C 
ENDBRANCH  18  22
ENDBRANCH   1  18
TORSDOF 7
ENDMDL
