ROOT
HETATM    1  C5  UNL     1      22.139   2.555  51.082  1.00  0.00     0.009 C 
HETATM    2  C6  UNL     1      23.355   2.623  50.171  1.00  0.00     0.010 C 
HETATM    3  C7  UNL     1      24.521   2.875  51.135  1.00  0.00     0.029 C 
HETATM    4  C8  UNL     1      24.770   1.524  51.763  1.00  0.00     0.001 C 
HETATM    5  C9  UNL     1      23.664   1.126  52.431  1.00  0.00     0.042 C 
HETATM    6  C10 UNL     1      22.472   2.037  52.431  1.00  0.00     0.105 C 
HETATM    7  S1  UNL     1      21.261   0.853  53.114  1.00  0.00    -0.125 SA
HETATM    8  C11 UNL     1      22.239  -0.658  53.011  1.00  0.00     0.211 C 
HETATM    9  N2  UNL     1      23.588  -0.108  53.120  1.00  0.00    -0.257 N 
ENDROOT
BRANCH   9  10
HETATM   10  N3  UNL     1      24.499  -0.788  53.792  1.00  0.00    -0.197 NA
BRANCH  10  11
HETATM   11  C13 UNL     1      25.713  -0.313  54.117  1.00  0.00     0.127 A 
HETATM   12  C14 UNL     1      27.060  -0.721  53.565  1.00  0.00     0.023 A 
HETATM   13  C15 UNL     1      28.447  -0.728  53.455  1.00  0.00     0.035 A 
HETATM   14  C19 UNL     1      26.990  -1.674  52.478  1.00  0.00    -0.026 A 
HETATM   15  C18 UNL     1      26.822  -0.821  53.471  1.00  0.00     0.023 A 
HETATM   16  C16 UNL     1      28.740   0.285  54.582  1.00  0.00    -0.039 A 
HETATM   17  C17 UNL     1      27.415   0.192  54.567  1.00  0.00     0.035 A 
ENDBRANCH  10  11
ENDBRANCH   9  10
BRANCH   8  18
HETATM   18  C12 UNL     1      21.890  -1.625  54.092  1.00  0.00     0.118 C 
HETATM   19  N1  UNL     1      22.111  -1.616  55.330  1.00  0.00    -0.313 NA
HETATM   20  H19 UNL     1      21.821  -2.359  56.008  1.00  0.00     0.185 HD
ENDBRANCH   8  18
BRANCH   1  21
HETATM   21  C3  UNL     1      20.945   1.933  50.431  1.00  0.00    -0.013 C 
HETATM   22  C4  UNL     1      21.253   0.966  49.344  1.00  0.00     0.010 C 
BRANCH  21  23
HETATM   23  C2  UNL     1      19.995   3.024  49.915  1.00  0.00     0.000 C 
HETATM   24  C1  UNL     1      19.601   3.892  51.093  1.00  0.00     0.005 C 
ENDBRANCH  21  23
ENDBRANCH   1  21
TORSDOF 7
ENDMDL
