ROOT
HETATM    1  C6  UNL     1      23.423   2.166  51.771  1.00  0.00    -0.019 A 
HETATM    2  C7  UNL     1      22.774   1.674  50.634  1.00  0.00     0.010 A 
HETATM    3  C8  UNL     1      22.678   2.299  49.413  1.00  0.00     0.003 A 
HETATM    4  C9  UNL     1      23.284   3.533  49.306  1.00  0.00     0.035 A 
HETATM    5  C10 UNL     1      23.932   4.057  50.391  1.00  0.00     0.096 A 
HETATM    6  C17 UNL     1      24.006   3.397  51.600  1.00  0.00     0.101 A 
ENDROOT
BRANCH   1   7
HETATM    7  C5  UNL     1      23.420   1.324  53.012  1.00  0.00     0.076 C 
BRANCH   7   8
HETATM    8  C4  UNL     1      24.611   0.437  53.055  1.00  0.00    -0.066 A 
HETATM    9  C3  UNL     1      24.628  -0.851  53.329  1.00  0.00     0.013 A 
HETATM   10  C2  UNL     1      26.066  -0.965  53.186  1.00  0.00    -0.028 A 
HETATM   11  C1  UNL     1      27.339  -1.360  53.059  1.00  0.00     0.012 C 
HETATM   12  C18 UNL     1      26.045   0.482  52.798  1.00  0.00     0.053 A 
HETATM   13  C21 UNL     1      28.521  -0.475  53.169  1.00  0.00     0.020 C 
HETATM   14  C20 UNL     1      28.394   0.825  53.428  1.00  0.00    -0.024 C 
HETATM   15  C19 UNL     1      26.974   1.290  53.602  1.00  0.00     0.041 C 
BRANCH  11  16
HETATM   16  N1  UNL     1      27.718  -2.746  53.001  1.00  0.00    -0.302 NA
HETATM   17  H1  UNL     1      27.676  -3.765  52.793  1.00  0.00     0.124 HD
HETATM   18  H2  UNL     1      27.083  -3.411  52.549  1.00  0.00     0.124 HD
ENDBRANCH  11  16
ENDBRANCH   7   8
ENDBRANCH   1   7
BRANCH   6  19
HETATM   19  O2  UNL     1      24.658   3.913  52.712  1.00  0.00    -0.358 OA
HETATM   20  H15 UNL     1      24.476   4.882  52.991  1.00  0.00     0.217 HD
ENDBRANCH   6  19
BRANCH   5  21
HETATM   21  N2  UNL     1      24.591   5.331  50.360  1.00  0.00    -0.222 N 
BRANCH  21  22
HETATM   22  O1  UNL     1      24.078   6.360  51.069  1.00  0.00    -0.282 OA
HETATM   23  H9  UNL     1      23.429   6.859  50.504  1.00  0.00     0.245 HD
ENDBRANCH  21  22
BRANCH  21  24
HETATM   24  C11 UNL     1      25.781   5.607  49.620  1.00  0.00     0.063 A 
HETATM   25  C12 UNL     1      26.124   6.884  49.179  1.00  0.00     0.032 A 
HETATM   26  C13 UNL     1      27.302   7.068  48.468  1.00  0.00     0.002 A 
HETATM   27  C14 UNL     1      28.161   6.031  48.172  1.00  0.00     0.000 A 
HETATM   28  C15 UNL     1      27.842   4.763  48.597  1.00  0.00     0.002 A 
HETATM   29  C16 UNL     1      26.676   4.583  49.301  1.00  0.00     0.032 A 
ENDBRANCH  21  24
ENDBRANCH   5  21
TORSDOF 7
ENDMDL
