ROOT
HETATM    1  C1  UNL     1      22.778  -1.375  55.215  1.00  0.00     0.114 C 
HETATM    2  C2  UNL     1      21.487  -1.178  54.584  1.00  0.00    -0.081 C 
HETATM    3  C3  UNL     1      20.412  -0.999  54.065  1.00  0.00     0.054 C 
ENDROOT
BRANCH   3   4
HETATM    4  O1  UNL     1      19.200  -0.780  53.488  1.00  0.00    -0.299 OA
BRANCH   4   5
HETATM    5  C4  UNL     1      19.021  -0.300  52.170  1.00  0.00     0.226 C 
BRANCH   5   6
HETATM    6  C5  UNL     1      20.087   0.701  51.906  1.00  0.00    -0.033 A 
HETATM    7  C6  UNL     1      21.039   0.412  50.955  1.00  0.00     0.012 A 
HETATM    8  C7  UNL     1      22.083   1.219  50.592  1.00  0.00     0.037 A 
HETATM    9  C8  UNL     1      22.187   2.435  51.242  1.00  0.00     0.069 A 
HETATM   10  C16 UNL     1      21.253   2.776  52.209  1.00  0.00     0.037 A 
HETATM   11  C17 UNL     1      20.215   1.915  52.536  1.00  0.00     0.012 A 
BRANCH   9  12
HETATM   12  O2  UNL     1      23.178   3.349  50.988  1.00  0.00    -0.347 OA
BRANCH  12  13
HETATM   13  C9  UNL     1      24.159   3.638  51.966  1.00  0.00     0.210 C 
BRANCH  13  14
HETATM   14  C10 UNL     1      25.117   2.508  52.016  1.00  0.00    -0.052 A 
HETATM   15  C11 UNL     1      26.163   2.055  51.343  1.00  0.00     0.006 A 
HETATM   16  C12 UNL     1      26.708   0.826  51.916  1.00  0.00     0.011 A 
HETATM   17  C13 UNL     1      25.936   0.570  52.961  1.00  0.00    -0.017 A 
HETATM   18  C15 UNL     1      24.858   1.577  53.153  1.00  0.00     0.078 A 
BRANCH  17  19
HETATM   19  C14 UNL     1      26.130  -0.583  53.833  1.00  0.00     0.265 C 
HETATM   20  O3  UNL     1      26.457  -0.513  55.027  1.00  0.00    -0.302 OA
ENDBRANCH  17  19
ENDBRANCH  13  14
ENDBRANCH  12  13
ENDBRANCH   9  12
ENDBRANCH   5   6
ENDBRANCH   4   5
ENDBRANCH   3   4
TORSDOF 7
ENDMDL
