ROOT
HETATM    1  C3  UNL     1      23.859  -0.032  53.537  1.00  0.00     0.343 C 
HETATM    2  N1  UNL     1      24.397   1.038  52.755  1.00  0.00    -0.264 NA
HETATM    3  C4  UNL     1      23.827   1.635  51.784  1.00  0.00     0.143 C 
HETATM    4  C5  UNL     1      24.575   2.708  51.127  1.00  0.00     0.064 C 
HETATM    5  C6  UNL     1      24.097   3.406  50.108  1.00  0.00     0.020 C 
HETATM    6  N2  UNL     1      25.886   3.093  51.530  1.00  0.00    -0.276 N 
HETATM    7  N3  UNL     1      27.195   2.608  51.534  1.00  0.00    -0.170 NA
HETATM    8  C8  UNL     1      27.765   2.128  52.588  1.00  0.00     0.229 C 
HETATM    9  N4  UNL     1      27.482   1.882  53.958  1.00  0.00    -0.351 N 
HETATM   10  C9  UNL     1      26.985   0.611  54.373  1.00  0.00     0.043 C 
HETATM   11  C10 UNL     1      27.236  -0.581  53.810  1.00  0.00     0.096 C 
HETATM   12  C12 UNL     1      25.998  -1.018  53.067  1.00  0.00     0.341 C 
HETATM   13  N5  UNL     1      24.855  -0.995  53.945  1.00  0.00     0.119 N 
HETATM   14  C13 UNL     1      25.208  -0.809  55.332  1.00  0.00     0.282 C 
HETATM   15  C14 UNL     1      26.068   0.411  55.552  1.00  0.00     0.090 C 
HETATM   16  H11 UNL     1      25.974   4.034  51.976  1.00  0.00     0.189 HD
HETATM   17  H13 UNL     1      27.610   2.581  54.729  1.00  0.00     0.166 HD
ENDROOT
BRANCH   5  18
HETATM   18  C7  UNL     1      24.777   4.490  49.398  1.00  0.00     0.144 C 
HETATM   19 CL1  UNL     1      23.664   5.431  48.366  1.00  0.00    -0.126 Cl
ENDBRANCH   5  18
BRANCH   1  20
HETATM   20  C2  UNL     1      22.772  -0.820  52.792  1.00  0.00     0.055 C 
HETATM   21  C1  UNL     1      21.688  -1.241  53.760  1.00  0.00     0.009 C 
ENDBRANCH   1  20
BRANCH  11  22
HETATM   22  O1  UNL     1      28.544  -0.877  54.172  1.00  0.00    -0.356 OA
HETATM   23  C11 UNL     1      29.621  -1.045  53.308  1.00  0.00     0.209 C 
ENDBRANCH  11  22
TORSDOF 3
ENDMDL
