ROOT
HETATM    1  C6  UNL     1      24.596   0.177  52.999  1.00  0.00     0.030 A 
HETATM    2  C7  UNL     1      24.331   1.199  52.203  1.00  0.00     0.040 A 
HETATM    3  C8  UNL     1      22.970   1.719  52.150  1.00  0.00    -0.008 A 
HETATM    4  C9  UNL     1      22.693   2.721  51.375  1.00  0.00     0.007 A 
HETATM    5  C10 UNL     1      21.330   3.273  51.294  1.00  0.00     0.064 A 
HETATM    6  C11 UNL     1      21.461   4.696  51.857  1.00  0.00     0.189 C 
HETATM    7  O1  UNL     1      22.004   5.559  50.912  1.00  0.00    -0.388 OA
HETATM    8  C12 UNL     1      21.031   6.358  50.327  1.00  0.00     0.187 C 
HETATM    9  C13 UNL     1      20.429   5.543  49.205  1.00  0.00     0.143 C 
HETATM   10  N3  UNL     1      19.833   4.318  49.645  1.00  0.00    -0.407 N 
HETATM   11  C14 UNL     1      18.654   4.502  50.368  1.00  0.00     0.143 C 
HETATM   12  C15 UNL     1      18.153   3.448  51.264  1.00  0.00     0.194 C 
HETATM   13  O2  UNL     1      19.019   2.946  52.235  1.00  0.00    -0.352 OA
HETATM   14  C16 UNL     1      20.371   2.554  52.182  1.00  0.00     0.065 A 
HETATM   15  C17 UNL     1      20.634   1.524  52.985  1.00  0.00     0.065 A 
HETATM   16  C18 UNL     1      22.014   1.052  52.992  1.00  0.00     0.064 A 
HETATM   17  N4  UNL     1      22.270   0.060  53.764  1.00  0.00    -0.283 NA
HETATM   18  C19 UNL     1      23.594  -0.519  53.880  1.00  0.00     0.206 A 
HETATM   19  C20 UNL     1      20.717   3.259  49.937  1.00  0.00     0.139 C 
ENDROOT
BRANCH   1  20
HETATM   20  N2  UNL     1      25.838  -0.482  53.206  1.00  0.00    -0.358 N 
HETATM   21  H6  UNL     1      25.868  -1.544  53.236  1.00  0.00     0.166 HD
BRANCH  20  22
HETATM   22  C5  UNL     1      27.239  -0.325  53.420  1.00  0.00     0.034 A 
HETATM   23  C4  UNL     1      28.067  -1.420  53.151  1.00  0.00     0.029 A 
HETATM   24  C3  UNL     1      29.447  -1.330  53.341  1.00  0.00     0.004 A 
HETATM   25  C2  UNL     1      29.873  -0.105  53.800  1.00  0.00     0.029 A 
HETATM   26  C1  UNL     1      29.137   1.010  54.086  1.00  0.00     0.027 A 
HETATM   27  C21 UNL     1      27.758   0.881  53.882  1.00  0.00     0.058 A 
BRANCH  26  28
HETATM   28  N1  UNL     1      29.743   2.206  54.556  1.00  0.00    -0.399 N 
HETATM   29  H1  UNL     1      30.735   2.567  54.500  1.00  0.00     0.156 HD
HETATM   30  H2  UNL     1      28.866   2.604  54.977  1.00  0.00     0.156 HD
ENDBRANCH  26  28
ENDBRANCH  20  22
ENDBRANCH   1  20
TORSDOF 3
ENDMDL
