ROOT
HETATM    1  O1  UNL     1      21.977   2.540  52.410  1.00  0.00    -0.268 OA
HETATM    2  C1  UNL     1      21.820   1.812  51.458  1.00  0.00     0.252 C 
HETATM    3  N1  UNL     1      22.841   1.398  50.443  1.00  0.00    -0.324 N 
HETATM    4  C2  UNL     1      22.957   2.562  49.547  1.00  0.00     0.049 C 
HETATM    5  C3  UNL     1      22.191   2.247  48.547  1.00  0.00     0.001 C 
HETATM    6  C4  UNL     1      20.900   1.927  48.671  1.00  0.00     0.015 C 
HETATM    7  C5  UNL     1      20.073   1.180  49.686  1.00  0.00     0.014 C 
HETATM    8  C6  UNL     1      20.647   1.064  50.899  1.00  0.00     0.013 C 
HETATM    9  C7  UNL     1      20.331   0.223  52.064  1.00  0.00     0.071 C 
HETATM   10  C8  UNL     1      21.491  -0.079  52.972  1.00  0.00    -0.021 C 
HETATM   11  C9  UNL     1      22.813  -0.028  53.197  1.00  0.00     0.010 C 
HETATM   12  C10 UNL     1      24.170   0.286  52.878  1.00  0.00    -0.009 A 
HETATM   13  C11 UNL     1      25.101  -0.566  53.450  1.00  0.00     0.014 A 
HETATM   14  C12 UNL     1      26.463  -0.527  53.282  1.00  0.00     0.002 A 
HETATM   15  C13 UNL     1      27.094   0.404  52.492  1.00  0.00     0.013 A 
HETATM   16  C14 UNL     1      26.170   1.278  51.901  1.00  0.00    -0.010 A 
HETATM   17  C15 UNL     1      26.426   2.328  51.000  1.00  0.00     0.023 A 
HETATM   18  C16 UNL     1      25.255   2.982  50.568  1.00  0.00     0.110 A 
HETATM   19  N2  UNL     1      24.522   2.131  51.351  1.00  0.00    -0.348 N 
HETATM   20  C17 UNL     1      24.835   1.155  52.132  1.00  0.00     0.052 A 
HETATM   21  C18 UNL     1      23.879   3.196  50.516  1.00  0.00     0.172 A 
HETATM   22  H1  UNL     1      23.425   0.624  50.199  1.00  0.00     0.169 HD
ENDROOT
TORSDOF 0
ENDMDL
