ROOT
HETATM    1  N1  UNL     1      27.064   0.582  53.328  1.00  0.00    -0.338 N 
HETATM    2  C3  UNL     1      26.993  -0.327  54.313  1.00  0.00     0.210 A 
HETATM    3  N2  UNL     1      25.736  -0.715  54.494  1.00  0.00    -0.241 NA
HETATM    4  C4  UNL     1      24.960  -0.055  53.617  1.00  0.00     0.095 A 
HETATM    5  C11 UNL     1      25.801   0.758  52.886  1.00  0.00     0.066 A 
ENDROOT
BRANCH   5   6
HETATM    6  C12 UNL     1      25.498   1.658  51.824  1.00  0.00     0.044 C 
BRANCH   6   7
HETATM    7  C13 UNL     1      25.209   2.678  51.104  1.00  0.00    -0.026 A 
HETATM    8  C14 UNL     1      26.316   3.236  50.336  1.00  0.00     0.036 A 
HETATM    9  C15 UNL     1      26.413   4.209  49.444  1.00  0.00     0.035 A 
HETATM   10 CL1  UNL     1      27.857   4.740  48.611  1.00  0.00    -0.084 Cl
HETATM   11  C16 UNL     1      25.228   4.963  49.113  1.00  0.00     0.025 A 
HETATM   12  C17 UNL     1      24.019   4.838  49.575  1.00  0.00     0.010 A 
HETATM   13  P1  UNL     1      23.614   3.576  50.826  1.00  0.00    -0.071 P 
HETATM   14  H15 UNL     1      23.225   4.289  52.035  1.00  0.00     0.066 HD
ENDBRANCH   6   7
ENDBRANCH   5   6
BRANCH   1  15
HETATM   15  C2  UNL     1      28.374   1.098  53.071  1.00  0.00     0.156 C 
BRANCH  15  16
HETATM   16  C1  UNL     1      28.572   2.430  53.750  1.00  0.00     0.184 C 
BRANCH  16  17
HETATM   17  O1  UNL     1      29.634   2.430  54.655  1.00  0.00    -0.399 OA
HETATM   18  H1  UNL     1      30.461   2.416  54.086  1.00  0.00     0.209 HD
ENDBRANCH  16  17
ENDBRANCH  15  16
ENDBRANCH   1  15
BRANCH   4  19
HETATM   19  C5  UNL     1      23.515  -0.189  53.490  1.00  0.00    -0.005 A 
HETATM   20  C6  UNL     1      22.654   0.252  52.503  1.00  0.00     0.017 A 
HETATM   21  C7  UNL     1      21.305  -0.016  52.584  1.00  0.00     0.043 A 
HETATM   22  C8  UNL     1      20.779  -0.726  53.644  1.00  0.00     0.116 A 
HETATM   23  F1  UNL     1      19.442  -0.989  53.711  1.00  0.00    -0.206 F 
HETATM   24  C9  UNL     1      21.626  -1.170  54.634  1.00  0.00     0.043 A 
HETATM   25  C10 UNL     1      22.979  -0.909  54.565  1.00  0.00     0.017 A 
ENDBRANCH   4  19
TORSDOF 6
ENDMDL
