ROOT
HETATM    1  C4  UNL     1      25.083  -0.162  53.117  1.00  0.00     0.110 A 
HETATM    2  C5  UNL     1      25.613   0.721  52.174  1.00  0.00     0.072 A 
HETATM    3  C6  UNL     1      24.820   1.733  51.612  1.00  0.00     0.070 A 
HETATM    4  C7  UNL     1      23.504   1.841  52.007  1.00  0.00     0.029 A 
HETATM    5  C8  UNL     1      22.953   0.987  52.931  1.00  0.00     0.117 A 
HETATM    6  C9  UNL     1      23.764   0.011  53.458  1.00  0.00     0.136 A 
HETATM    7  O3  UNL     1      23.309  -0.893  54.390  1.00  0.00    -0.344 OA
HETATM    8  C10 UNL     1      21.941  -1.006  54.731  1.00  0.00     0.202 C 
HETATM    9  C11 UNL     1      21.092  -0.312  53.688  1.00  0.00     0.202 C 
HETATM   10  O4  UNL     1      21.659   0.961  53.431  1.00  0.00    -0.345 OA
HETATM   11  C12 UNL     1      22.882   2.835  51.395  1.00  0.00     0.055 A 
HETATM   12  C13 UNL     1      23.884   3.460  50.497  1.00  0.00     0.272 A 
HETATM   13  C14 UNL     1      24.176   4.871  50.933  1.00  0.00     0.101 C 
HETATM   14  C15 UNL     1      24.848   5.701  49.923  1.00  0.00     0.020 C 
HETATM   15  C16 UNL     1      24.541   6.167  48.708  1.00  0.00     0.112 C 
HETATM   16  F1  UNL     1      25.492   6.928  48.101  1.00  0.00    -0.206 F 
HETATM   17  C17 UNL     1      23.319   5.991  47.890  1.00  0.00     0.039 C 
HETATM   18  C18 UNL     1      22.360   5.048  47.931  1.00  0.00     0.006 C 
HETATM   19  C19 UNL     1      22.180   3.839  48.817  1.00  0.00     0.301 C 
HETATM   20  N1  UNL     1      23.504   3.344  49.105  1.00  0.00     0.121 N 
HETATM   21  N2  UNL     1      25.058   2.655  50.744  1.00  0.00    -0.243 NA
HETATM   22  H22 UNL     1      23.565   2.353  48.835  1.00  0.00     0.320 HD
ENDROOT
BRANCH   1  23
HETATM   23  O2  UNL     1      26.047  -1.051  53.513  1.00  0.00    -0.318 OA
BRANCH  23  24
HETATM   24  C2  UNL     1      27.379  -1.143  53.153  1.00  0.00     0.266 C 
HETATM   25  C3  UNL     1      27.741  -2.571  52.707  1.00  0.00     0.071 C 
BRANCH  24  26
HETATM   26  O1  UNL     1      28.247  -0.892  54.242  1.00  0.00    -0.337 OA
BRANCH  26  27
HETATM   27  P1  UNL     1      29.425   0.329  53.833  1.00  0.00     0.011 P 
HETATM   28  C1  UNL     1      28.661   2.022  53.832  1.00  0.00     0.072 C 
HETATM   29  H4  UNL     1      30.037   0.033  52.554  1.00  0.00     0.087 HD
ENDBRANCH  26  27
ENDBRANCH  24  26
ENDBRANCH  23  24
ENDBRANCH   1  23
TORSDOF 4
ENDMDL
