ROOT
HETATM    1  C2  UNL     1      26.573   0.149  54.189  1.00  0.00     0.103 A 
HETATM    2  C3  UNL     1      25.431  -0.584  53.875  1.00  0.00     0.072 A 
HETATM    3  C4  UNL     1      24.311   0.072  53.370  1.00  0.00     0.075 A 
HETATM    4  N1  UNL     1      23.206  -0.661  53.069  1.00  0.00    -0.241 NA
HETATM    5  C5  UNL     1      22.103  -0.057  52.578  1.00  0.00     0.236 A 
HETATM    6  N2  UNL     1      22.126   1.284  52.396  1.00  0.00    -0.224 NA
HETATM    7  C6  UNL     1      23.228   1.995  52.699  1.00  0.00     0.142 A 
HETATM    8  C13 UNL     1      24.364   1.438  53.195  1.00  0.00     0.042 A 
HETATM    9  C14 UNL     1      25.475   2.193  53.496  1.00  0.00     0.057 A 
HETATM   10  C15 UNL     1      26.573   1.523  53.994  1.00  0.00     0.102 A 
ENDROOT
BRANCH   7  11
HETATM   11  N3  UNL     1      23.115   3.391  52.459  1.00  0.00    -0.339 N 
HETATM   12  H6  UNL     1      22.671   4.155  53.011  1.00  0.00     0.167 HD
BRANCH  11  13
HETATM   13  C7  UNL     1      23.667   3.986  51.288  1.00  0.00     0.049 C 
HETATM   14  C8  UNL     1      23.947   5.272  51.149  1.00  0.00     0.047 C 
HETATM   15  C9  UNL     1      25.001   5.641  50.451  1.00  0.00     0.152 C 
HETATM   16  F1  UNL     1      25.576   6.838  50.679  1.00  0.00    -0.203 F 
HETATM   17  C10 UNL     1      25.487   4.680  49.437  1.00  0.00     0.084 C 
HETATM   18 CL1  UNL     1      27.089   4.933  48.775  1.00  0.00    -0.080 Cl
HETATM   19  C11 UNL     1      24.686   3.688  49.089  1.00  0.00     0.003 C 
HETATM   20  C12 UNL     1      23.982   3.181  50.088  1.00  0.00     0.044 C 
ENDBRANCH  11  13
ENDBRANCH   7  11
BRANCH  10  21
HETATM   21  O2  UNL     1      27.729   2.221  54.319  1.00  0.00    -0.353 OA
HETATM   22  C16 UNL     1      28.663   2.563  53.302  1.00  0.00     0.210 C 
ENDBRANCH  10  21
BRANCH   1  23
HETATM   23  O1  UNL     1      27.712  -0.480  54.697  1.00  0.00    -0.353 OA
HETATM   24  C1  UNL     1      28.602  -1.040  53.730  1.00  0.00     0.210 C 
ENDBRANCH   1  23
TORSDOF 4
ENDMDL
