ROOT
HETATM    1  C2  UNL     1      27.702   6.302  48.515  1.00  0.00     0.058 A 
HETATM    2  C3  UNL     1      27.772   4.984  48.495  1.00  0.00     0.002 A 
HETATM    3  C4  UNL     1      26.823   4.081  49.160  1.00  0.00     0.070 A 
HETATM    4  C5  UNL     1      25.770   4.819  49.860  1.00  0.00    -0.019 A 
HETATM    5  C6  UNL     1      24.817   4.180  50.521  1.00  0.00     0.075 C 
HETATM    6  C15 UNL     1      25.704   6.276  49.874  1.00  0.00     0.048 A 
HETATM    7  C16 UNL     1      26.624   6.997  49.235  1.00  0.00     0.087 A 
ENDROOT
BRANCH   5   8
HETATM    8  S2  UNL     1      23.494   5.037  51.403  1.00  0.00    -0.125 SA
HETATM    9  H7  UNL     1      23.559   6.415  51.090  1.00  0.00     0.108 HD
ENDBRANCH   5   8
BRANCH   5  10
HETATM   10  N1  UNL     1      24.669   2.786  50.651  1.00  0.00    -0.334 N 
HETATM   11  H8  UNL     1      24.102   2.277  49.939  1.00  0.00     0.168 HD
BRANCH  10  12
HETATM   12  C7  UNL     1      25.264   2.070  51.714  1.00  0.00     0.146 A 
HETATM   13  C8  UNL     1      24.535   1.166  52.459  1.00  0.00     0.167 A 
HETATM   14  N2  UNL     1      25.155   0.518  53.454  1.00  0.00    -0.255 NA
HETATM   15  C9  UNL     1      26.455   0.727  53.738  1.00  0.00     0.085 A 
HETATM   16  C10 UNL     1      27.073   0.046  54.770  1.00  0.00     0.034 A 
HETATM   17  C14 UNL     1      27.212   1.627  53.008  1.00  0.00     0.087 A 
HETATM   18  C11 UNL     1      28.404   0.275  55.044  1.00  0.00     0.002 A 
HETATM   19  C12 UNL     1      29.134   1.176  54.302  1.00  0.00     0.002 A 
HETATM   20  C13 UNL     1      28.543   1.876  53.259  1.00  0.00     0.034 A 
HETATM   21  N3  UNL     1      26.560   2.254  52.025  1.00  0.00    -0.228 NA
ENDBRANCH  10  12
ENDBRANCH   5  10
BRANCH   7  22
HETATM   22  O2  UNL     1      26.486   8.376  49.299  1.00  0.00    -0.355 OA
HETATM   23  C17 UNL     1      27.115   9.220  50.213  1.00  0.00     0.210 C 
ENDBRANCH   7  22
BRANCH   1  24
HETATM   24  S1  UNL     1      28.921   7.295  47.666  1.00  0.00     0.030 SA
BRANCH  24  25
HETATM   25  O1  UNL     1      30.154   7.743  48.774  1.00  0.00    -0.320 OA
HETATM   26  C1  UNL     1      31.147   6.783  48.726  1.00  0.00     0.220 C 
ENDBRANCH  24  25
ENDBRANCH   1  24
TORSDOF 6
ENDMDL
