ROOT
HETATM    1  N1  UNL     1      27.091   1.190  53.293  1.00  0.00    -0.337 N 
HETATM    2  C3  UNL     1      28.210   1.838  53.872  1.00  0.00     0.477 C 
HETATM    3  O1  UNL     1      29.157   2.531  54.316  1.00  0.00    -0.392 OA
ENDROOT
BRANCH   1   4
HETATM    4  C2  UNL     1      26.949  -0.208  53.643  1.00  0.00     0.126 C 
HETATM    5  C1  UNL     1      26.729  -1.070  52.405  1.00  0.00     0.027 C 
ENDBRANCH   1   4
BRANCH   1   6
HETATM    6  C4  UNL     1      26.319   2.063  52.480  1.00  0.00     0.034 C 
BRANCH   6   7
HETATM    7  C5  UNL     1      26.707   2.489  51.149  1.00  0.00     0.047 C 
BRANCH   7   8
HETATM    8  C6  UNL     1      26.216   3.214  50.182  1.00  0.00     0.101 C 
BRANCH   8   9
HETATM    9  N2  UNL     1      26.019   4.461  49.592  1.00  0.00    -0.303 N 
HETATM   10  C7  UNL     1      24.832   5.136  49.596  1.00  0.00     0.162 A 
HETATM   11  N6  UNL     1      25.082   6.249  48.944  1.00  0.00    -0.226 NA
HETATM   12  C16 UNL     1      26.346   6.336  48.523  1.00  0.00     0.086 A 
HETATM   13  C17 UNL     1      26.957   7.339  47.820  1.00  0.00     0.034 A 
HETATM   14  C21 UNL     1      26.950   5.175  48.946  1.00  0.00     0.069 A 
HETATM   15  C18 UNL     1      28.298   7.193  47.496  1.00  0.00     0.002 A 
HETATM   16  C19 UNL     1      28.955   6.057  47.890  1.00  0.00     0.002 A 
HETATM   17  C20 UNL     1      28.276   5.097  48.591  1.00  0.00     0.032 A 
BRANCH  10  18
HETATM   18  C8  UNL     1      23.538   4.786  50.160  1.00  0.00     0.114 A 
HETATM   19  N3  UNL     1      23.126   3.647  49.651  1.00  0.00    -0.249 NA
HETATM   20  C9  UNL     1      21.846   3.144  50.104  1.00  0.00     0.074 A 
HETATM   21  C13 UNL     1      21.349   3.988  50.979  1.00  0.00     0.006 A 
HETATM   22  C14 UNL     1      21.675   5.266  51.635  1.00  0.00     0.071 A 
HETATM   23  C15 UNL     1      23.008   5.760  51.141  1.00  0.00     0.276 A 
BRANCH  20  24
HETATM   24  C10 UNL     1      21.126   1.907  49.722  1.00  0.00     0.271 A 
HETATM   25  C11 UNL     1      20.209   1.344  50.773  1.00  0.00     0.062 C 
HETATM   26  C12 UNL     1      21.559   1.162  48.599  1.00  0.00     0.349 A 
HETATM   27  N4  UNL     1      20.469   2.010  48.430  1.00  0.00     0.334 N 
ENDBRANCH  20  24
BRANCH  23  28
HETATM   28  N5  UNL     1      23.962   5.926  52.224  1.00  0.00     0.089 N 
HETATM   29  H17 UNL     1      23.452   5.783  53.121  1.00  0.00     0.313 HD
HETATM   30  H18 UNL     1      24.521   6.789  52.160  1.00  0.00     0.313 HD
ENDBRANCH  23  28
ENDBRANCH  10  18
ENDBRANCH   8   9
ENDBRANCH   7   8
ENDBRANCH   6   7
BRANCH   6  31
HETATM   31  C22 UNL     1      25.171   2.543  52.921  1.00  0.00     0.032 C 
BRANCH  31  32
HETATM   32  C23 UNL     1      23.764   2.091  52.941  1.00  0.00     0.296 C 
BRANCH  32  33
HETATM   33  N7  UNL     1      23.588   0.784  52.330  1.00  0.00     0.081 N 
HETATM   34  H26 UNL     1      23.988   0.727  51.382  1.00  0.00     0.313 HD
HETATM   35  H27 UNL     1      24.026   0.049  52.920  1.00  0.00     0.313 HD
ENDBRANCH  32  33
ENDBRANCH  31  32
ENDBRANCH   6  31
ENDBRANCH   1   6
TORSDOF 11
ENDMDL
