ROOT
HETATM    1  C3  UNL     1      28.244   0.567  53.148  1.00  0.00     0.031 C 
HETATM    2  C4  UNL     1      26.988   0.205  53.056  1.00  0.00     0.031 C 
HETATM    3  C5  UNL     1      26.143  -0.184  54.167  1.00  0.00     0.021 C 
HETATM    4  C6  UNL     1      25.240  -0.561  55.023  1.00  0.00     0.109 C 
HETATM    5  C7  UNL     1      23.918  -0.948  54.880  1.00  0.00    -0.094 C 
HETATM    6  C8  UNL     1      22.824  -1.291  54.759  1.00  0.00    -0.080 C 
HETATM    7  C9  UNL     1      21.499  -1.732  54.612  1.00  0.00     0.261 C 
HETATM    8  O1  UNL     1      20.663  -1.166  53.719  1.00  0.00    -0.379 OA
HETATM    9  C10 UNL     1      20.298   0.102  53.845  1.00  0.00     0.172 C 
HETATM   10  C11 UNL     1      21.301   1.173  53.642  1.00  0.00     0.053 C 
HETATM   11  C12 UNL     1      21.908   1.231  52.296  1.00  0.00    -0.024 C 
HETATM   12  C13 UNL     1      22.780   1.366  51.316  1.00  0.00     0.013 C 
HETATM   13  C14 UNL     1      24.199   1.683  51.220  1.00  0.00     0.027 A 
HETATM   14  C15 UNL     1      24.177   3.018  50.739  1.00  0.00     0.133 A 
HETATM   15  N1  UNL     1      25.194   3.897  50.436  1.00  0.00    -0.253 NA
HETATM   16  C16 UNL     1      26.441   3.376  50.638  1.00  0.00     0.234 A 
HETATM   17  N2  UNL     1      26.531   2.096  51.100  1.00  0.00    -0.224 NA
HETATM   18  C17 UNL     1      25.500   1.297  51.375  1.00  0.00     0.141 A 
HETATM   19  N3  UNL     1      26.342   0.196  51.790  1.00  0.00    -0.340 N 
HETATM   20  H16 UNL     1      26.612  -0.664  51.303  1.00  0.00     0.167 HD
ENDROOT
BRANCH   1  21
HETATM   21  C2  UNL     1      29.013   0.642  54.381  1.00  0.00     0.032 C 
HETATM   22  C1  UNL     1      29.480   1.779  54.808  1.00  0.00     0.188 C 
HETATM   23  F1  UNL     1      29.148   2.799  53.967  1.00  0.00    -0.219 F 
ENDBRANCH   1  21
TORSDOF 1
ENDMDL
