ROOT
HETATM    1  O1  UNL     1      20.643   2.276  51.303  1.00  0.00    -0.177 OA
HETATM    2  C1  UNL     1      20.257   3.326  50.789  1.00  0.00     0.155 A 
HETATM    3  C2  UNL     1      19.948   3.383  52.332  1.00  0.00     0.095 A 
HETATM    4  O2  UNL     1      20.456   2.203  52.722  1.00  0.00     0.000 OA
HETATM    5  C3  UNL     1      20.927   1.103  53.097  1.00  0.00    -0.015 A 
HETATM    6  C4  UNL     1      20.065   0.209  53.640  1.00  0.00     0.016 A 
HETATM    7  C5  UNL     1      20.546  -1.005  54.049  1.00  0.00     0.043 A 
HETATM    8  C6  UNL     1      21.832  -1.384  53.950  1.00  0.00     0.117 A 
HETATM    9  F1  UNL     1      22.299  -2.580  54.353  1.00  0.00    -0.206 F 
HETATM   10  C7  UNL     1      22.675  -0.424  53.386  1.00  0.00     0.054 A 
HETATM   11  C8  UNL     1      22.305   0.864  52.925  1.00  0.00    -0.021 A 
HETATM   12  C9  UNL     1      23.432   1.616  52.379  1.00  0.00     0.026 C 
HETATM   13  C10 UNL     1      23.849   2.324  51.333  1.00  0.00     0.017 A 
HETATM   14  C11 UNL     1      25.241   2.802  51.518  1.00  0.00     0.138 A 
HETATM   15  N2  UNL     1      25.903   3.414  50.604  1.00  0.00    -0.224 NA
HETATM   16  C18 UNL     1      25.384   3.722  49.335  1.00  0.00     0.230 A 
HETATM   17  N3  UNL     1      24.199   3.380  49.162  1.00  0.00    -0.269 NA
HETATM   18  C19 UNL     1      23.311   2.754  50.043  1.00  0.00     0.170 A 
HETATM   19  C20 UNL     1      22.464   1.794  49.323  1.00  0.00     0.022 C 
HETATM   20  C21 UNL     1      21.172   2.016  49.016  1.00  0.00     0.088 C 
HETATM   21  N4  UNL     1      20.535   3.276  49.399  1.00  0.00    -0.348 N 
HETATM   22  H16 UNL     1      20.087   4.196  49.582  1.00  0.00     0.167 HD
ENDROOT
BRANCH  14  23
HETATM   23  N1  UNL     1      26.043   2.691  52.702  1.00  0.00    -0.340 N 
HETATM   24  H7  UNL     1      25.834   3.457  53.396  1.00  0.00     0.167 HD
BRANCH  23  25
HETATM   25  C12 UNL     1      27.031   1.729  53.040  1.00  0.00     0.035 A 
HETATM   26  C13 UNL     1      28.188   2.136  53.656  1.00  0.00     0.029 A 
HETATM   27  C14 UNL     1      29.174   1.244  54.006  1.00  0.00     0.004 A 
HETATM   28  C15 UNL     1      29.064  -0.110  53.762  1.00  0.00     0.019 A 
HETATM   29  C16 UNL     1      27.902  -0.493  53.147  1.00  0.00     0.013 A 
HETATM   30 BR1  UNL     1      27.677  -2.362  52.774  1.00  0.00    -0.051 Br
HETATM   31  C17 UNL     1      26.892   0.385  52.784  1.00  0.00     0.048 A 
ENDBRANCH  23  25
ENDBRANCH  14  23
TORSDOF 2
ENDMDL
