ROOT
HETATM    1  C1  UNL     1      20.285   1.482  52.243  1.00  0.00     0.043 C 
HETATM    2  C2  UNL     1      21.229   1.110  53.095  1.00  0.00    -0.051 C 
HETATM    3  C3  UNL     1      20.701   0.470  54.328  1.00  0.00     0.004 C 
HETATM    4  C4  UNL     1      21.353  -0.604  54.820  1.00  0.00    -0.026 C 
HETATM    5  C5  UNL     1      22.541  -1.378  54.429  1.00  0.00     0.032 C 
HETATM    6  C6  UNL     1      23.743  -0.643  53.996  1.00  0.00     0.043 C 
HETATM    7  C7  UNL     1      23.597   0.566  53.184  1.00  0.00    -0.050 C 
HETATM    8  C16 UNL     1      22.659   1.385  52.723  1.00  0.00    -0.042 C 
ENDROOT
BRANCH   7   9
HETATM    9  C8  UNL     1      24.910   1.126  52.969  1.00  0.00     0.021 C 
HETATM   10  C9  UNL     1      26.198   1.166  53.199  1.00  0.00    -0.006 C 
HETATM   11  C10 UNL     1      26.627   0.164  54.152  1.00  0.00     0.026 C 
HETATM   12  C14 UNL     1      27.353   1.931  52.766  1.00  0.00     0.064 C 
HETATM   13  C11 UNL     1      27.736   0.220  54.827  1.00  0.00    -0.025 C 
HETATM   14  C12 UNL     1      28.826   0.593  54.219  1.00  0.00     0.014 C 
HETATM   15  C13 UNL     1      28.547   1.642  53.255  1.00  0.00     0.033 C 
BRANCH  12  16
HETATM   16  N1  UNL     1      26.987   2.941  51.821  1.00  0.00    -0.267 N 
HETATM   17  H13 UNL     1      26.797   3.899  52.151  1.00  0.00     0.194 HD
BRANCH  16  18
HETATM   18  O1  UNL     1      26.882   2.694  50.516  1.00  0.00    -0.285 OA
HETATM   19  C15 UNL     1      26.557   3.797  49.757  1.00  0.00     0.237 C 
ENDBRANCH  16  18
ENDBRANCH  12  16
ENDBRANCH   7   9
BRANCH   8  20
HETATM   20  C17 UNL     1      22.706   2.465  51.772  1.00  0.00     0.011 C 
HETATM   21  C18 UNL     1      23.215   2.223  50.394  1.00  0.00     0.015 C 
HETATM   22  C19 UNL     1      23.183   3.807  52.279  1.00  0.00     0.015 C 
ENDBRANCH   8  20
TORSDOF 4
ENDMDL
