ROOT
HETATM    1  C2  UNL     1      22.759   0.292  52.565  1.00  0.00     0.087 C 
HETATM    2  C3  UNL     1      23.789   0.988  52.211  1.00  0.00     0.078 C 
HETATM    3  C11 UNL     1      23.678   2.054  51.234  1.00  0.00     0.008 C 
HETATM    4  C12 UNL     1      24.269   2.696  50.260  1.00  0.00    -0.007 C 
HETATM    5  C13 UNL     1      23.603   3.801  49.575  1.00  0.00     0.062 C 
HETATM    6  C14 UNL     1      22.223   3.564  49.138  1.00  0.00    -0.078 C 
HETATM    7  C15 UNL     1      21.756   3.939  47.751  1.00  0.00     0.044 C 
HETATM    8  C16 UNL     1      21.279   3.009  49.915  1.00  0.00     0.035 C 
HETATM    9  P1  UNL     1      21.907   2.575  51.594  1.00  0.00     0.044 P 
HETATM   10  N2  UNL     1      21.522   0.812  51.989  1.00  0.00    -0.347 N 
HETATM   11  C17 UNL     1      20.166   0.514  51.618  1.00  0.00     0.156 C 
ENDROOT
BRANCH   2  12
HETATM   12  C4  UNL     1      25.077   0.650  52.766  1.00  0.00     0.260 C 
HETATM   13  O1  UNL     1      25.270   0.753  53.972  1.00  0.00    -0.267 OA
HETATM   14  N1  UNL     1      26.239   0.197  52.155  1.00  0.00    -0.323 N 
HETATM   15  H4  UNL     1      26.163   0.116  51.117  1.00  0.00     0.169 HD
BRANCH  14  16
HETATM   16  C5  UNL     1      27.484  -0.135  52.705  1.00  0.00     0.035 A 
HETATM   17  C6  UNL     1      28.471   0.674  53.193  1.00  0.00     0.029 A 
HETATM   18  C7  UNL     1      29.679   0.281  53.722  1.00  0.00     0.002 A 
HETATM   19  C8  UNL     1      29.944  -1.068  53.776  1.00  0.00     0.000 A 
HETATM   20  C9  UNL     1      29.007  -1.960  53.308  1.00  0.00     0.002 A 
HETATM   21  C10 UNL     1      27.837  -1.462  52.801  1.00  0.00     0.029 A 
ENDBRANCH  14  16
ENDBRANCH   2  12
BRANCH   1  22
HETATM   22  S1  UNL     1      22.140  -1.037  53.521  1.00  0.00    -0.116 SA
HETATM   23  C1  UNL     1      22.740  -1.279  55.156  1.00  0.00     0.097 C 
ENDBRANCH   1  22
TORSDOF 3
ENDMDL
