ROOT
HETATM    1  C3  UNL     1      22.923   1.715  52.320  1.00  0.00     0.107 C 
HETATM    2  C4  UNL     1      23.120   2.247  51.128  1.00  0.00     0.128 C 
HETATM    3  C5  UNL     1      22.462   2.601  49.896  1.00  0.00     0.488 C 
HETATM    4  N1  UNL     1      23.677   2.959  49.487  1.00  0.00    -0.142 NA
HETATM    5  C6  UNL     1      24.770   2.776  50.427  1.00  0.00     0.584 C 
HETATM    6  C7  UNL     1      25.990   3.190  50.120  1.00  0.00     0.032 C 
HETATM    7  C8  UNL     1      26.737   2.784  51.284  1.00  0.00     0.177 C 
HETATM    8  N3  UNL     1      26.120   2.086  52.361  1.00  0.00    -0.375 N 
HETATM    9  C15 UNL     1      25.162   2.159  53.396  1.00  0.00     0.126 C 
HETATM   10  C16 UNL     1      23.850   1.515  53.388  1.00  0.00     0.062 C 
ENDROOT
BRANCH   8  11
HETATM   11  C9  UNL     1      26.697   0.755  52.504  1.00  0.00     0.032 A 
HETATM   12  C10 UNL     1      26.128  -0.446  52.202  1.00  0.00     0.032 A 
HETATM   13  C11 UNL     1      26.818  -1.649  52.405  1.00  0.00     0.046 A 
HETATM   14  C12 UNL     1      28.115  -1.634  52.923  1.00  0.00     0.138 A 
HETATM   15  F3  UNL     1      28.799  -2.784  53.127  1.00  0.00    -0.204 F 
HETATM   16  C13 UNL     1      28.605  -0.380  53.195  1.00  0.00     0.074 A 
HETATM   17 CL1  UNL     1      30.250  -0.394  53.863  1.00  0.00    -0.081 Cl
HETATM   18  C14 UNL     1      28.002   0.836  53.027  1.00  0.00     0.056 A 
ENDBRANCH   8  11
BRANCH   6  19
HETATM   19  N2  UNL     1      26.959   3.830  49.209  1.00  0.00    -0.402 N 
HETATM   20  H7  UNL     1      26.582   3.875  48.225  1.00  0.00     0.155 HD
HETATM   21  H8  UNL     1      27.709   4.017  49.904  1.00  0.00     0.155 HD
ENDBRANCH   6  19
BRANCH   1  22
HETATM   22  O1  UNL     1      21.726   1.183  52.930  1.00  0.00    -0.311 OA
BRANCH  22  23
HETATM   23  C2  UNL     1      21.241  -0.079  52.564  1.00  0.00     0.351 C 
HETATM   24  C1  UNL     1      20.069  -0.491  53.462  1.00  0.00     0.126 C 
HETATM   25  F1  UNL     1      22.268  -0.996  52.622  1.00  0.00    -0.176 F 
HETATM   26  F2  UNL     1      20.801  -0.026  51.231  1.00  0.00    -0.176 F 
ENDBRANCH  22  23
ENDBRANCH   1  22
TORSDOF 4
ENDMDL
