ROOT
HETATM    1  C13 UNL     1      22.955  -0.114  53.798  1.00  0.00     0.141 A 
HETATM    2  N3  UNL     1      22.485  -1.255  54.316  1.00  0.00    -0.224 NA
HETATM    3  C14 UNL     1      21.195  -1.573  54.158  1.00  0.00     0.236 A 
HETATM    4  N4  UNL     1      20.327  -0.792  53.495  1.00  0.00    -0.241 NA
HETATM    5  C15 UNL     1      20.746   0.389  52.943  1.00  0.00     0.075 A 
HETATM    6  C16 UNL     1      19.915   1.228  52.263  1.00  0.00     0.071 A 
HETATM    7  C17 UNL     1      20.462   2.396  51.756  1.00  0.00     0.097 A 
HETATM    8  C19 UNL     1      21.818   2.711  51.933  1.00  0.00     0.069 A 
HETATM    9  C23 UNL     1      22.646   1.845  52.626  1.00  0.00     0.050 A 
HETATM   10  C24 UNL     1      22.073   0.697  53.116  1.00  0.00     0.041 A 
ENDROOT
BRANCH   1  11
HETATM   11  N2  UNL     1      24.341   0.066  54.054  1.00  0.00    -0.350 N 
HETATM   12  H17 UNL     1      24.626   0.859  54.678  1.00  0.00     0.166 HD
BRANCH  11  13
HETATM   13  C12 UNL     1      25.236  -0.855  53.445  1.00  0.00     0.087 C 
HETATM   14  C11 UNL     1      26.512  -1.159  53.238  1.00  0.00     0.016 C 
BRANCH  14  15
HETATM   15  C10 UNL     1      27.664  -0.407  53.723  1.00  0.00     0.117 C 
HETATM   16  N1  UNL     1      27.797   0.931  53.158  1.00  0.00    -0.333 N 
HETATM   17  C7  UNL     1      28.980   1.353  53.923  1.00  0.00     0.133 C 
HETATM   18  C8  UNL     1      29.945   0.218  53.537  1.00  0.00     0.023 C 
HETATM   19  C9  UNL     1      29.011  -0.970  53.238  1.00  0.00     0.031 C 
BRANCH  16  20
HETATM   20  C6  UNL     1      27.144   1.704  52.206  1.00  0.00     0.009 C 
HETATM   21  C5  UNL     1      26.566   2.374  51.400  1.00  0.00    -0.080 C 
BRANCH  21  22
HETATM   22  C4  UNL     1      25.840   3.187  50.430  1.00  0.00     0.122 C 
BRANCH  22  23
HETATM   23  C3  UNL     1      26.786   3.735  49.379  1.00  0.00    -0.019 C 
HETATM   24  C2  UNL     1      27.182   4.945  49.038  1.00  0.00    -0.034 C 
HETATM   25  C1  UNL     1      27.958   5.885  48.226  1.00  0.00     0.036 C 
ENDBRANCH  22  23
ENDBRANCH  21  22
ENDBRANCH  16  20
ENDBRANCH  14  15
ENDBRANCH  11  13
ENDBRANCH   1  11
BRANCH   8  26
HETATM   26  N5  UNL     1      22.184   3.952  51.349  1.00  0.00    -0.325 N 
HETATM   27  C20 UNL     1      23.020   5.028  51.728  1.00  0.00     0.221 C 
HETATM   28  O2  UNL     1      23.680   5.101  52.784  1.00  0.00    -0.273 OA
HETATM   29  H23 UNL     1      21.604   3.838  50.477  1.00  0.00     0.169 HD
BRANCH  27  30
HETATM   30  C21 UNL     1      22.985   6.058  50.654  1.00  0.00     0.098 C 
HETATM   31  C22 UNL     1      24.172   6.984  50.770  1.00  0.00     0.014 C 
ENDBRANCH  27  30
ENDBRANCH   8  26
BRANCH   7  32
HETATM   32  O1  UNL     1      19.578   3.227  51.066  1.00  0.00    -0.354 OA
HETATM   33  C18 UNL     1      18.270   3.522  51.544  1.00  0.00     0.210 C 
ENDBRANCH   7  32
TORSDOF 9
ENDMDL
