ROOT
HETATM    1  O1  UNL     1      23.006  -0.854  54.086  1.00  0.00    -0.273 OA
HETATM    2  C1  UNL     1      22.453   0.080  53.595  1.00  0.00     0.222 C 
HETATM    3  C2  UNL     1      20.781   0.630  53.806  1.00  0.00     0.122 C 
HETATM    4  C3  UNL     1      21.018   1.169  52.596  1.00  0.00     0.046 A 
HETATM    5  C4  UNL     1      21.453   2.420  52.328  1.00  0.00     0.080 A 
HETATM    6  C5  UNL     1      22.574   3.403  51.850  1.00  0.00     0.094 C 
HETATM    7  C6  UNL     1      22.522   2.562  50.598  1.00  0.00     0.159 C 
HETATM    8  N2  UNL     1      21.314   3.370  50.078  1.00  0.00    -0.250 NA
HETATM    9  C13 UNL     1      20.306   3.732  50.916  1.00  0.00     0.200 C 
HETATM   10  N3  UNL     1      20.208   3.237  52.365  1.00  0.00    -0.371 N 
HETATM   11  C14 UNL     1      21.924   1.257  51.233  1.00  0.00     0.106 A 
HETATM   12  C15 UNL     1      21.281   0.115  51.663  1.00  0.00    -0.002 A 
HETATM   13  N4  UNL     1      22.898   1.199  52.604  1.00  0.00    -0.334 N 
HETATM   14  H11 UNL     1      19.768   3.136  53.315  1.00  0.00     0.161 HD
ENDROOT
BRANCH   7  15
HETATM   15  N1  UNL     1      23.542   2.448  49.772  1.00  0.00    -0.360 N 
HETATM   16  H5  UNL     1      23.614   1.514  49.310  1.00  0.00     0.162 HD
BRANCH  15  17
HETATM   17  C7  UNL     1      24.477   3.477  49.509  1.00  0.00     0.033 A 
HETATM   18  C8  UNL     1      25.815   3.260  49.763  1.00  0.00     0.029 A 
HETATM   19  C9  UNL     1      26.755   4.253  49.513  1.00  0.00     0.005 A 
HETATM   20  C10 UNL     1      26.342   5.471  49.004  1.00  0.00     0.042 A 
HETATM   21  C11 UNL     1      25.000   5.700  48.745  1.00  0.00     0.118 A 
HETATM   22  F1  UNL     1      24.567   6.895  48.242  1.00  0.00    -0.206 F 
HETATM   23  C12 UNL     1      24.070   4.694  49.001  1.00  0.00     0.071 A 
ENDBRANCH  15  17
ENDBRANCH   7  15
BRANCH  13  24
HETATM   24  C16 UNL     1      24.244   1.669  53.090  1.00  0.00     0.129 C 
BRANCH  24  25
HETATM   25  C17 UNL     1      25.133   0.591  52.339  1.00  0.00     0.050 C 
BRANCH  25  26
HETATM   26  C18 UNL     1      26.157   0.071  53.330  1.00  0.00     0.274 C 
BRANCH  26  27
HETATM   27  N5  UNL     1      27.454   0.212  52.747  1.00  0.00     0.092 N 
HETATM   28  C19 UNL     1      27.834   1.595  52.537  1.00  0.00     0.298 C 
HETATM   29  C20 UNL     1      28.116   2.306  53.851  1.00  0.00     0.198 C 
HETATM   30  O2  UNL     1      29.013   1.598  54.634  1.00  0.00    -0.388 OA
HETATM   31  C21 UNL     1      28.572   0.297  54.855  1.00  0.00     0.198 C 
HETATM   32  C22 UNL     1      28.496  -0.397  53.519  1.00  0.00     0.298 C 
ENDBRANCH  26  27
ENDBRANCH  25  26
ENDBRANCH  24  25
ENDBRANCH  13  24
TORSDOF 6
ENDMDL
