ROOT
HETATM    1  N1  UNL     1      24.463   7.859  50.473  1.00  0.00    -0.172 NA
HETATM    2  C1  UNL     1      25.043   6.835  50.480  1.00  0.00     0.184 C 
HETATM    3  N2  UNL     1      25.726   5.587  50.481  1.00  0.00    -0.264 N 
HETATM    4  C2  UNL     1      25.276   4.515  49.663  1.00  0.00     0.234 C 
HETATM    5  O1  UNL     1      24.265   4.632  48.910  1.00  0.00    -0.272 OA
HETATM    6  H1  UNL     1      26.545   5.595  51.124  1.00  0.00     0.181 HD
ENDROOT
BRANCH   4   7
HETATM    7  C3  UNL     1      26.135   3.327  49.833  1.00  0.00     0.142 C 
BRANCH   7   8
HETATM    8  C4  UNL     1      25.751   2.525  51.008  1.00  0.00    -0.052 A 
HETATM    9  C5  UNL     1      26.380   2.095  52.124  1.00  0.00    -0.009 A 
HETATM   10  C6  UNL     1      26.364   1.351  53.408  1.00  0.00     0.053 A 
HETATM   11  C13 UNL     1      25.038   0.949  53.656  1.00  0.00     0.037 A 
HETATM   12  C14 UNL     1      24.343   1.374  52.435  1.00  0.00    -0.045 A 
HETATM   13  C20 UNL     1      24.635  -0.486  54.025  1.00  0.00    -0.025 A 
HETATM   14  C21 UNL     1      23.933   0.067  53.489  1.00  0.00     0.067 A 
HETATM   15  C15 UNL     1      24.346   2.033  51.173  1.00  0.00     0.015 A 
HETATM   16  C16 UNL     1      23.024   0.868  52.723  1.00  0.00    -0.046 A 
HETATM   17  C17 UNL     1      21.682   0.611  52.818  1.00  0.00     0.004 A 
HETATM   18  C18 UNL     1      21.646  -0.478  53.764  1.00  0.00    -0.020 A 
HETATM   19  C19 UNL     1      23.058  -0.707  54.087  1.00  0.00     0.023 A 
BRANCH  10  20
HETATM   20  C7  UNL     1      27.399   0.253  53.383  1.00  0.00    -0.017 A 
HETATM   21  C8  UNL     1      27.159  -0.907  52.645  1.00  0.00     0.011 A 
HETATM   22  C9  UNL     1      28.027  -1.975  52.560  1.00  0.00     0.001 A 
HETATM   23  C10 UNL     1      29.217  -1.826  53.288  1.00  0.00     0.003 A 
HETATM   24  C11 UNL     1      29.523  -0.710  54.040  1.00  0.00     0.037 A 
HETATM   25  C12 UNL     1      28.592   0.306  54.063  1.00  0.00     0.072 A 
BRANCH  25  26
HETATM   26  O2  UNL     1      28.729   1.517  54.772  1.00  0.00    -0.360 OA
HETATM   27  H10 UNL     1      27.913   1.916  55.217  1.00  0.00     0.217 HD
ENDBRANCH  25  26
ENDBRANCH  10  20
ENDBRANCH   7   8
ENDBRANCH   4   7
TORSDOF 4
ENDMDL
