ROOT
HETATM    1  C2  UNL     1      24.539   0.281  53.149  1.00  0.00     0.079 A 
HETATM    2  C3  UNL     1      24.118   0.960  52.005  1.00  0.00     0.066 A 
HETATM    3  C4  UNL     1      24.826   2.067  51.582  1.00  0.00     0.038 A 
HETATM    4  C12 UNL     1      25.940   2.525  52.259  1.00  0.00     0.066 A 
HETATM    5  C13 UNL     1      26.377   1.864  53.403  1.00  0.00     0.079 A 
HETATM    6  C15 UNL     1      25.662   0.751  53.823  1.00  0.00     0.005 A 
HETATM    7  C16 UNL     1      26.018  -0.063  55.038  1.00  0.00     0.054 C 
ENDROOT
BRANCH   3   8
HETATM    8  N1  UNL     1      24.450   2.821  50.410  1.00  0.00    -0.351 N 
HETATM    9  H5  UNL     1      23.452   2.791  50.060  1.00  0.00     0.166 HD
BRANCH   8  10
HETATM   10  C5  UNL     1      25.511   3.581  49.798  1.00  0.00     0.208 C 
HETATM   11  N2  UNL     1      25.289   4.811  49.483  1.00  0.00    -0.244 NA
BRANCH  11  12
HETATM   12  C6  UNL     1      26.326   5.570  48.880  1.00  0.00     0.058 A 
HETATM   13  C7  UNL     1      26.327   6.864  48.405  1.00  0.00     0.033 A 
HETATM   14  C8  UNL     1      27.478   7.384  47.852  1.00  0.00     0.026 A 
HETATM   15  C9  UNL     1      28.634   6.658  47.754  1.00  0.00     0.034 A 
HETATM   16 CL1  UNL     1      30.022   7.432  47.033  1.00  0.00    -0.084 Cl
HETATM   17  C10 UNL     1      28.646   5.370  48.222  1.00  0.00     0.026 A 
HETATM   18  C11 UNL     1      27.498   4.813  48.788  1.00  0.00     0.033 A 
ENDBRANCH  11  12
ENDBRANCH   8  10
ENDBRANCH   3   8
BRANCH   1  19
HETATM   19  O1  UNL     1      23.822  -0.831  53.566  1.00  0.00    -0.355 OA
HETATM   20  C1  UNL     1      22.429  -0.935  53.430  1.00  0.00     0.210 C 
ENDBRANCH   1  19
BRANCH   5  21
HETATM   21  O2  UNL     1      27.442   2.147  54.212  1.00  0.00    -0.355 OA
HETATM   22  C14 UNL     1      28.761   2.349  53.744  1.00  0.00     0.210 C 
ENDBRANCH   5  21
TORSDOF 5
ENDMDL
