ROOT
HETATM    1  C1  UNL     1      28.588  -0.873  53.466  1.00  0.00     0.041 C 
HETATM    2  C2  UNL     1      27.406  -0.013  53.557  1.00  0.00     0.164 A 
HETATM    3  N1  UNL     1      26.014   0.628  53.430  1.00  0.00    -0.227 NA
HETATM    4  C3  UNL     1      26.682   1.304  52.357  1.00  0.00     0.121 C 
HETATM    5  C4  UNL     1      25.666   2.074  51.460  1.00  0.00     0.058 C 
HETATM    6  C5  UNL     1      26.726   2.995  50.730  1.00  0.00     0.091 C 
HETATM    7  N2  UNL     1      26.275   3.744  49.854  1.00  0.00    -0.302 NA
HETATM    8  C6  UNL     1      26.987   4.681  49.052  1.00  0.00     0.175 C 
HETATM    9  C7  UNL     1      26.029   5.760  48.642  1.00  0.00    -0.005 C 
HETATM   10  C8  UNL     1      24.723   6.012  48.897  1.00  0.00    -0.003 C 
HETATM   11  C9  UNL     1      23.718   5.300  49.735  1.00  0.00    -0.003 C 
HETATM   12  C10 UNL     1      22.477   5.073  50.262  1.00  0.00    -0.007 C 
HETATM   13  C11 UNL     1      22.291   3.944  51.215  1.00  0.00     0.149 C 
HETATM   14  N3  UNL     1      23.531   3.411  51.726  1.00  0.00    -0.389 N 
HETATM   15  C12 UNL     1      22.997   2.036  51.921  1.00  0.00     0.089 C 
HETATM   16  C13 UNL     1      22.431   0.807  52.031  1.00  0.00     0.085 C 
HETATM   17  C14 UNL     1      23.424   0.183  53.020  1.00  0.00     0.020 C 
HETATM   18  C15 UNL     1      24.247  -0.360  53.867  1.00  0.00    -0.152 C 
HETATM   19  C16 UNL     1      25.240  -1.014  54.881  1.00  0.00     0.172 C 
HETATM   20  N4  UNL     1      26.295  -0.307  54.546  1.00  0.00    -0.211 NA
HETATM   21  C17 UNL     1      24.726   2.855  52.224  1.00  0.00     0.133 C 
ENDROOT
TORSDOF 0
ENDMDL
