ROOT
HETATM    1  C4  UNL     1      25.811   2.450  51.971  1.00  0.00     0.004 C 
HETATM    2  C5  UNL     1      26.593   2.205  50.784  1.00  0.00    -0.013 C 
ENDROOT
BRANCH   1   3
HETATM    3  C3  UNL     1      25.581   1.761  53.070  1.00  0.00    -0.058 C 
BRANCH   3   4
HETATM    4  C2  UNL     1      24.185   1.438  52.954  1.00  0.00    -0.019 C 
HETATM    5  C1  UNL     1      23.471   0.282  53.062  1.00  0.00     0.031 C 
ENDBRANCH   3   4
BRANCH   3   6
HETATM    6  C15 UNL     1      26.393   1.346  54.223  1.00  0.00     0.077 C 
BRANCH   6   7
HETATM    7  C16 UNL     1      27.437   0.350  53.855  1.00  0.00    -0.048 A 
HETATM    8  C17 UNL     1      27.035  -0.912  53.445  1.00  0.00     0.008 A 
HETATM    9  C18 UNL     1      27.973  -1.844  53.076  1.00  0.00     0.001 A 
HETATM   10  C19 UNL     1      29.322  -1.594  53.090  1.00  0.00     0.001 A 
HETATM   11  C20 UNL     1      29.687  -0.331  53.503  1.00  0.00     0.007 A 
HETATM   12  C21 UNL     1      28.782   0.648  53.886  1.00  0.00    -0.055 A 
HETATM   13  C22 UNL     1      29.136   2.012  54.357  1.00  0.00     0.049 C 
ENDBRANCH   6   7
ENDBRANCH   3   6
ENDBRANCH   1   3
BRANCH   2  14
HETATM   14  C6  UNL     1      26.505   3.183  49.975  1.00  0.00     0.093 C 
BRANCH  14  15
HETATM   15  C7  UNL     1      26.395   4.414  49.300  1.00  0.00     0.141 C 
HETATM   16  O1  UNL     1      27.612   4.298  48.920  1.00  0.00    -0.297 OA
BRANCH  15  17
HETATM   17  C8  UNL     1      25.449   5.538  48.996  1.00  0.00     0.069 C 
HETATM   18  C9  UNL     1      26.233   6.827  49.195  1.00  0.00     0.020 C 
BRANCH  17  19
HETATM   19  C10 UNL     1      24.334   5.396  49.958  1.00  0.00     0.128 C 
BRANCH  19  20
HETATM   20  N1  UNL     1      23.185   4.721  49.592  1.00  0.00    -0.412 N 
HETATM   21  C11 UNL     1      22.929   4.352  48.255  1.00  0.00     0.117 C 
HETATM   22  C12 UNL     1      22.716   2.847  48.253  1.00  0.00     0.021 C 
HETATM   23  C13 UNL     1      22.755   2.398  49.684  1.00  0.00     0.021 C 
HETATM   24  C14 UNL     1      22.708   3.692  50.466  1.00  0.00     0.117 C 
ENDBRANCH  19  20
ENDBRANCH  17  19
ENDBRANCH  15  17
ENDBRANCH  14  15
ENDBRANCH   2  14
TORSDOF 9
ENDMDL
