ROOT
HETATM    1  C5  UNL     1      26.848   1.872  52.141  1.00  0.00     0.141 A 
HETATM    2  N2  UNL     1      28.027   2.432  52.461  1.00  0.00    -0.224 NA
HETATM    3  C6  UNL     1      28.625   2.166  53.660  1.00  0.00     0.236 A 
HETATM    4  N3  UNL     1      28.007   1.319  54.536  1.00  0.00    -0.241 NA
HETATM    5  C7  UNL     1      26.810   0.756  54.200  1.00  0.00     0.072 A 
HETATM    6  C8  UNL     1      26.187  -0.102  55.088  1.00  0.00     0.033 A 
HETATM    7  C9  UNL     1      24.976  -0.678  54.762  1.00  0.00     0.011 A 
HETATM    8  C10 UNL     1      24.361  -0.408  53.535  1.00  0.00    -0.038 A 
HETATM    9  C14 UNL     1      24.979   0.450  52.640  1.00  0.00     0.026 A 
HETATM   10  C15 UNL     1      26.189   1.011  52.993  1.00  0.00     0.039 A 
ENDROOT
BRANCH   1  11
HETATM   11  N1  UNL     1      26.337   2.223  50.883  1.00  0.00    -0.350 N 
HETATM   12  H4  UNL     1      25.935   1.653  50.107  1.00  0.00     0.166 HD
BRANCH  11  13
HETATM   13  C4  UNL     1      26.300   3.576  50.463  1.00  0.00     0.091 C 
HETATM   14  C3  UNL     1      26.894   3.888  49.311  1.00  0.00     0.043 C 
BRANCH  14  15
HETATM   15  C2  UNL     1      26.923   5.245  48.774  1.00  0.00     0.062 C 
HETATM   16  C1  UNL     1      25.914   6.099  48.678  1.00  0.00     0.212 C 
HETATM   17  F1  UNL     1      26.237   7.281  48.141  1.00  0.00    -0.218 F 
HETATM   18 CL1  UNL     1      28.425   5.923  48.155  1.00  0.00    -0.082 Cl
ENDBRANCH  14  15
ENDBRANCH  11  13
ENDBRANCH   1  11
BRANCH   8  19
HETATM   19  C11 UNL     1      23.057  -1.043  53.209  1.00  0.00     0.183 C 
BRANCH  19  20
HETATM   20  N4  UNL     1      21.976  -0.053  53.203  1.00  0.00    -0.297 N 
HETATM   21  C12 UNL     1      21.100   0.305  54.316  1.00  0.00     0.193 A 
HETATM   22  C13 UNL     1      20.580   1.210  53.236  1.00  0.00     0.132 A 
HETATM   23  N5  UNL     1      21.395   0.846  52.279  1.00  0.00    -0.192 NA
ENDBRANCH  19  20
ENDBRANCH   8  19
TORSDOF 5
ENDMDL
