ROOT
HETATM    1  C9  UNL     1      24.769  -0.329  54.049  1.00  0.00     0.144 A 
HETATM    2  N2  UNL     1      25.013  -0.976  55.233  1.00  0.00    -0.223 NA
HETATM    3  C10 UNL     1      23.994  -1.535  55.938  1.00  0.00     0.236 A 
HETATM    4  N3  UNL     1      22.686  -1.515  55.569  1.00  0.00    -0.241 NA
HETATM    5  C11 UNL     1      22.445  -0.880  54.406  1.00  0.00     0.075 A 
HETATM    6  C12 UNL     1      21.169  -0.772  53.887  1.00  0.00     0.072 A 
HETATM    7  C13 UNL     1      20.887  -0.121  52.680  1.00  0.00     0.103 A 
HETATM    8  C15 UNL     1      21.940   0.437  51.983  1.00  0.00     0.100 A 
HETATM    9  C16 UNL     1      23.236   0.359  52.457  1.00  0.00     0.057 A 
HETATM   10  C17 UNL     1      23.446  -0.298  53.655  1.00  0.00     0.042 A 
ENDROOT
BRANCH   1  11
HETATM   11  N1  UNL     1      25.903   0.205  53.439  1.00  0.00    -0.331 N 
BRANCH  11  12
HETATM   12  C2  UNL     1      25.874   1.500  52.915  1.00  0.00     0.126 C 
HETATM   13  C1  UNL     1      26.504   1.663  51.532  1.00  0.00     0.027 C 
ENDBRANCH  11  12
BRANCH  11  14
HETATM   14  C3  UNL     1      27.082  -0.608  53.363  1.00  0.00     0.035 A 
HETATM   15  C4  UNL     1      27.141  -1.833  52.790  1.00  0.00     0.029 A 
HETATM   16  C5  UNL     1      28.278  -2.611  52.716  1.00  0.00     0.002 A 
HETATM   17  C6  UNL     1      29.453  -2.131  53.255  1.00  0.00     0.000 A 
HETATM   18  C7  UNL     1      29.448  -0.893  53.849  1.00  0.00     0.002 A 
HETATM   19  C8  UNL     1      28.296  -0.160  53.897  1.00  0.00     0.029 A 
ENDBRANCH  11  14
ENDBRANCH   1  11
BRANCH   8  20
HETATM   20  O2  UNL     1      21.692   1.094  50.777  1.00  0.00    -0.358 OA
HETATM   21  H16 UNL     1      22.015   0.790  49.877  1.00  0.00     0.217 HD
ENDBRANCH   8  20
BRANCH   7  22
HETATM   22  O1  UNL     1      19.619  -0.007  52.152  1.00  0.00    -0.353 OA
HETATM   23  C14 UNL     1      18.548  -0.699  52.761  1.00  0.00     0.210 C 
ENDBRANCH   7  22
TORSDOF 5
ENDMDL
