ROOT
HETATM    1  C10 UNL     1      23.450   3.557  49.790  1.00  0.00     0.243 C 
HETATM    2  C11 UNL     1      22.269   3.246  49.063  1.00  0.00     0.034 C 
HETATM    3  C12 UNL     1      21.097   2.791  49.282  1.00  0.00     0.079 C 
HETATM    4  C13 UNL     1      19.815   2.472  48.438  1.00  0.00     0.092 C 
HETATM    5  N3  UNL     1      18.862   1.982  49.393  1.00  0.00    -0.299 NA
HETATM    6  C14 UNL     1      19.526   2.003  50.688  1.00  0.00     0.137 C 
HETATM    7  C15 UNL     1      20.265   2.322  51.722  1.00  0.00     0.044 C 
HETATM    8  C16 UNL     1      21.227   3.419  52.155  1.00  0.00     0.175 C 
HETATM    9  N4  UNL     1      22.546   2.782  52.017  1.00  0.00    -0.404 N 
HETATM   10  C17 UNL     1      23.086   1.596  52.703  1.00  0.00     0.095 C 
HETATM   11  C18 UNL     1      22.827   0.468  53.294  1.00  0.00     0.070 C 
HETATM   12  C19 UNL     1      23.335  -0.652  53.959  1.00  0.00    -0.021 C 
HETATM   13  C20 UNL     1      22.094  -1.104  54.080  1.00  0.00     0.040 C 
HETATM   14  C21 UNL     1      20.700  -0.867  53.815  1.00  0.00     0.131 C 
HETATM   15  F1  UNL     1      19.927  -1.909  54.266  1.00  0.00    -0.205 F 
HETATM   16  C22 UNL     1      19.850  -0.004  53.286  1.00  0.00     0.130 C 
HETATM   17  N5  UNL     1      19.873   1.271  52.641  1.00  0.00    -0.364 N 
HETATM   18  C23 UNL     1      23.606   3.303  51.241  1.00  0.00     0.153 C 
HETATM   19  H30 UNL     1      19.167   1.978  53.032  1.00  0.00     0.165 HD
ENDROOT
BRANCH   1  20
HETATM   20  N2  UNL     1      24.716   3.567  49.149  1.00  0.00     0.094 NA
HETATM   21  H17 UNL     1      24.841   2.678  48.592  1.00  0.00     0.317 HD
BRANCH  20  22
HETATM   22  C8  UNL     1      25.876   3.797  49.979  1.00  0.00     0.218 C 
HETATM   23  C9  UNL     1      26.835   4.647  49.198  1.00  0.00     0.042 C 
BRANCH  22  24
HETATM   24  C7  UNL     1      26.496   2.542  50.450  1.00  0.00     0.055 C 
BRANCH  24  25
HETATM   25  C6  UNL     1      26.957   2.446  51.823  1.00  0.00     0.125 C 
BRANCH  25  26
HETATM   26  N1  UNL     1      27.149   1.235  52.542  1.00  0.00    -0.381 N 
HETATM   27  C2  UNL     1      28.180   1.314  53.579  1.00  0.00     0.021 C 
HETATM   28  C1  UNL     1      28.836   2.483  53.729  1.00  0.00     0.040 C 
HETATM   29  C3  UNL     1      28.759   0.384  54.616  1.00  0.00     0.223 C 
HETATM   30  O1  UNL     1      28.292  -0.879  54.341  1.00  0.00    -0.384 OA
HETATM   31  C4  UNL     1      27.990  -0.984  52.979  1.00  0.00     0.187 C 
HETATM   32  C5  UNL     1      26.750  -0.172  52.709  1.00  0.00     0.149 C 
ENDBRANCH  25  26
ENDBRANCH  24  25
ENDBRANCH  22  24
ENDBRANCH  20  22
ENDBRANCH   1  20
TORSDOF 5
ENDMDL
