ROOT
HETATM    1  C3  UNL     1      17.826   1.701  51.940  1.00  0.00     0.184 C 
HETATM    2  O1  UNL     1      18.106   0.216  51.810  1.00  0.00    -0.338 OA
HETATM    3  C4  UNL     1      19.226  -0.195  52.575  1.00  0.00     0.108 A 
HETATM    4  C5  UNL     1      19.766  -0.934  53.589  1.00  0.00     0.072 A 
HETATM    5  C6  UNL     1      21.090  -0.889  53.889  1.00  0.00     0.077 A 
HETATM    6  N1  UNL     1      21.544  -1.632  54.897  1.00  0.00    -0.241 NA
HETATM    7  C7  UNL     1      22.876  -1.586  55.216  1.00  0.00     0.236 A 
HETATM    8  N2  UNL     1      23.733  -0.809  54.532  1.00  0.00    -0.224 NA
HETATM    9  C8  UNL     1      23.354  -0.035  53.507  1.00  0.00     0.143 A 
HETATM   10  C14 UNL     1      22.024  -0.134  53.254  1.00  0.00     0.075 A 
HETATM   11  C15 UNL     1      21.566   0.644  52.211  1.00  0.00     0.121 A 
HETATM   12  C16 UNL     1      20.187   0.588  51.883  1.00  0.00     0.140 A 
HETATM   13  O2  UNL     1      19.775   1.423  50.741  1.00  0.00    -0.312 OA
HETATM   14  C17 UNL     1      19.014   2.481  51.435  1.00  0.00     0.295 C 
HETATM   15  O3  UNL     1      19.870   3.114  52.237  1.00  0.00    -0.356 OA
HETATM   16  C18 UNL     1      21.118   3.465  52.028  1.00  0.00     0.197 C 
HETATM   17  C19 UNL     1      22.120   2.812  51.123  1.00  0.00     0.202 C 
HETATM   18  O4  UNL     1      22.572   1.468  51.581  1.00  0.00    -0.345 OA
ENDROOT
BRANCH   9  19
HETATM   19  N3  UNL     1      24.344   0.736  52.831  1.00  0.00    -0.350 N 
HETATM   20  C9  UNL     1      25.298   1.470  51.936  1.00  0.00     0.158 A 
HETATM   21  C10 UNL     1      25.440   1.665  53.372  1.00  0.00     0.166 A 
BRANCH  21  22
HETATM   22  C11 UNL     1      26.589   1.021  54.014  1.00  0.00     0.115 C 
HETATM   23  F1  UNL     1      26.397   0.769  55.345  1.00  0.00    -0.209 F 
HETATM   24  C12 UNL     1      27.802   0.583  53.742  1.00  0.00     0.028 C 
BRANCH  24  25
HETATM   25  C13 UNL     1      28.879  -0.075  54.559  1.00  0.00     0.144 C 
HETATM   26 CL1  UNL     1      30.144  -0.796  53.546  1.00  0.00    -0.126 Cl
ENDBRANCH  24  25
ENDBRANCH  21  22
ENDBRANCH   9  19
BRANCH   1  27
HETATM   27  C2  UNL     1      16.680   1.854  50.971  1.00  0.00     0.033 C 
HETATM   28  C1  UNL     1      16.327   0.597  50.266  1.00  0.00     0.007 C 
ENDBRANCH   1  27
TORSDOF 4
ENDMDL
