ROOT
HETATM    1  O1  UNL     1      23.803   5.084  52.437  1.00  0.00    -0.293 OA
HETATM    2  C1  UNL     1      23.118   4.394  51.661  1.00  0.00     0.179 C 
HETATM    3  C2  UNL     1      21.679   4.289  52.198  1.00  0.00     0.249 C 
HETATM    4  O2  UNL     1      21.021   3.471  51.543  1.00  0.00    -0.377 OA
HETATM    5  C3  UNL     1      20.355   2.643  50.880  1.00  0.00     0.232 C 
HETATM    6  C4  UNL     1      21.242   1.557  50.323  1.00  0.00     0.066 C 
HETATM    7  C5  UNL     1      21.519   1.232  49.093  1.00  0.00     0.008 C 
HETATM    8  C6  UNL     1      20.882   2.063  48.040  1.00  0.00     0.035 C 
HETATM    9  C7  UNL     1      21.998   2.894  47.371  1.00  0.00     0.050 C 
HETATM   10  C8  UNL     1      22.752   3.684  48.442  1.00  0.00     0.085 C 
HETATM   11  N1  UNL     1      23.298   3.273  49.498  1.00  0.00    -0.288 NA
HETATM   12  C9  UNL     1      24.011   3.962  50.520  1.00  0.00     0.211 C 
HETATM   13  C10 UNL     1      25.004   2.949  51.063  1.00  0.00    -0.026 A 
HETATM   14  C11 UNL     1      26.341   2.631  51.058  1.00  0.00     0.011 A 
HETATM   15  C12 UNL     1      26.733   1.477  51.686  1.00  0.00     0.020 A 
HETATM   16  C13 UNL     1      25.878   0.611  52.322  1.00  0.00     0.017 A 
HETATM   17 BR1  UNL     1      26.480  -0.961  53.163  1.00  0.00    -0.051 Br
HETATM   18  C14 UNL     1      24.527   0.826  52.392  1.00  0.00    -0.038 A 
HETATM   19  C15 UNL     1      24.270   1.998  51.738  1.00  0.00     0.018 A 
HETATM   20  C16 UNL     1      23.417   0.021  52.948  1.00  0.00     0.066 C 
HETATM   21  C17 UNL     1      22.070   0.579  52.448  1.00  0.00     0.180 C 
HETATM   22  O3  UNL     1      21.986   0.629  51.060  1.00  0.00    -0.353 OA
ENDROOT
TORSDOF 0
ENDMDL
