ROOT
HETATM    1  O1  UNL     1      25.473   3.639  49.571  1.00  0.00    -0.337 OA
ENDROOT
BRANCH   1   2
HETATM    2  C8  UNL     1      25.251   4.928  50.115  1.00  0.00     0.439 C 
BRANCH   2   3
HETATM    3  N1  UNL     1      24.798   4.714  51.455  1.00  0.00     0.106 N 
HETATM    4  H8  UNL     1      25.157   5.391  52.144  1.00  0.00     0.318 HD
BRANCH   3   5
HETATM    5  C7  UNL     1      23.368   4.564  51.495  1.00  0.00     0.273 C 
BRANCH   5   6
HETATM    6  C6  UNL     1      22.998   3.384  52.324  1.00  0.00     0.046 C 
BRANCH   6   7
HETATM    7  C5  UNL     1      22.672   2.184  51.597  1.00  0.00     0.006 A 
HETATM    8  C4  UNL     1      22.526   1.227  52.834  1.00  0.00     0.038 A 
HETATM    9  C15 UNL     1      22.407   1.066  51.476  1.00  0.00    -0.060 A 
BRANCH   8  10
HETATM   10  C3  UNL     1      22.163  -0.317  52.702  1.00  0.00     0.033 A 
HETATM   11  C2  UNL     1      22.002  -1.330  53.938  1.00  0.00     0.033 A 
HETATM   12  C1  UNL     1      22.264  -0.220  54.055  1.00  0.00    -0.065 A 
ENDBRANCH   8  10
ENDBRANCH   6   7
ENDBRANCH   5   6
ENDBRANCH   3   5
ENDBRANCH   2   3
ENDBRANCH   1   2
BRANCH   1  13
HETATM   13  C9  UNL     1      26.480   2.979  50.259  1.00  0.00     0.348 C 
BRANCH  13  14
HETATM   14  O2  UNL     1      25.965   1.961  51.096  1.00  0.00    -0.310 OA
BRANCH  14  15
HETATM   15  C10 UNL     1      26.771   1.490  52.112  1.00  0.00     0.142 C 
HETATM   16  C11 UNL     1      26.645   0.167  52.144  1.00  0.00     0.075 C 
HETATM   17  C12 UNL     1      27.219  -0.889  52.964  1.00  0.00     0.122 C 
HETATM   18  N2  UNL     1      27.981  -0.888  54.030  1.00  0.00    -0.254 NA
HETATM   19  C13 UNL     1      28.557   0.155  54.817  1.00  0.00     0.228 C 
HETATM   20  N3  UNL     1      28.802   1.383  54.644  1.00  0.00    -0.263 NA
HETATM   21  C14 UNL     1      28.703   2.464  53.698  1.00  0.00     0.273 C 
HETATM   22  N4  UNL     1      27.520   2.412  52.868  1.00  0.00    -0.353 N 
HETATM   23  H18 UNL     1      27.045   3.358  52.783  1.00  0.00     0.163 HD
ENDBRANCH  14  15
ENDBRANCH  13  14
ENDBRANCH   1  13
TORSDOF 10
ENDMDL
