ROOT
HETATM    1  O1  UNL     1      26.913   2.495  54.185  1.00  0.00    -0.246 OA
HETATM    2  C1  UNL     1      26.752   1.390  53.569  1.00  0.00     0.328 C 
HETATM    3  N1  UNL     1      25.455   1.629  53.050  1.00  0.00    -0.328 N 
HETATM    4  N2  UNL     1      27.716   0.354  53.538  1.00  0.00    -0.286 N 
HETATM    5  C13 UNL     1      27.734  -0.861  52.964  1.00  0.00     0.101 A 
HETATM    6  C14 UNL     1      28.920  -1.520  53.211  1.00  0.00     0.019 A 
HETATM    7  C15 UNL     1      29.601  -0.601  53.975  1.00  0.00     0.019 A 
HETATM    8  C16 UNL     1      28.883   0.537  54.180  1.00  0.00     0.101 A 
ENDROOT
BRANCH   3   9
HETATM    9  C2  UNL     1      24.928   2.930  53.439  1.00  0.00     0.145 C 
BRANCH   9  10
HETATM   10  C3  UNL     1      23.933   3.453  52.521  1.00  0.00     0.092 C 
BRANCH  10  11
HETATM   11  C4  UNL     1      24.382   4.088  51.444  1.00  0.00    -0.141 C 
BRANCH  11  12
HETATM   12  C5  UNL     1      25.015   4.488  50.348  1.00  0.00     0.107 C 
HETATM   13 BR1  UNL     1      26.419   3.405  49.692  1.00  0.00    -0.055 Br
ENDBRANCH  11  12
ENDBRANCH  10  11
ENDBRANCH   9  10
ENDBRANCH   3   9
BRANCH   3  14
HETATM   14  C6  UNL     1      24.627   0.778  52.204  1.00  0.00     0.166 C 
BRANCH  14  15
HETATM   15  C7  UNL     1      23.549   0.089  52.913  1.00  0.00    -0.040 A 
HETATM   16  C8  UNL     1      23.638  -0.621  54.089  1.00  0.00     0.011 A 
HETATM   17  C9  UNL     1      22.617  -1.263  54.755  1.00  0.00     0.037 A 
HETATM   18  C10 UNL     1      21.360  -1.196  54.192  1.00  0.00     0.065 A 
HETATM   19  C11 UNL     1      21.174  -0.506  53.014  1.00  0.00     0.037 A 
HETATM   20  C12 UNL     1      22.244   0.112  52.405  1.00  0.00     0.011 A 
BRANCH  18  21
HETATM   21  O2  UNL     1      20.317  -1.836  54.845  1.00  0.00    -0.361 OA
HETATM   22  H9  UNL     1      20.574  -2.589  55.483  1.00  0.00     0.217 HD
ENDBRANCH  18  21
ENDBRANCH  14  15
ENDBRANCH   3  14
TORSDOF 7
ENDMDL
