ROOT
HETATM    1  N1  UNL     1      25.418   6.441  48.976  1.00  0.00     0.099 N 
HETATM    2  C5  UNL     1      26.657   5.588  48.767  1.00  0.00     0.355 C 
HETATM    3  C6  UNL     1      26.606   4.434  49.544  1.00  0.00    -0.106 C 
HETATM    4  C7  UNL     1      26.548   3.514  50.151  1.00  0.00     0.219 A 
HETATM    5  C8  UNL     1      26.465   2.347  50.894  1.00  0.00     0.238 A 
HETATM    6  O1  UNL     1      27.479   2.916  51.336  1.00  0.00    -0.319 OA
HETATM    7  N2  UNL     1      26.795   1.383  51.840  1.00  0.00    -0.353 N 
HETATM    8  C9  UNL     1      27.932   1.335  52.797  1.00  0.00     0.271 C 
HETATM    9  N3  UNL     1      28.246   0.032  53.255  1.00  0.00    -0.280 NA
HETATM   10  C10 UNL     1      27.559  -0.635  54.177  1.00  0.00     0.144 C 
HETATM   11  C11 UNL     1      26.070  -0.534  54.238  1.00  0.00     0.087 A 
HETATM   12  N4  UNL     1      25.561  -0.917  55.459  1.00  0.00    -0.240 NA
HETATM   13  C12 UNL     1      24.239  -0.843  55.611  1.00  0.00     0.236 A 
HETATM   14  N5  UNL     1      23.450  -0.403  54.583  1.00  0.00    -0.224 NA
HETATM   15  C13 UNL     1      23.921  -0.025  53.391  1.00  0.00     0.139 A 
HETATM   16  C14 UNL     1      25.288  -0.077  53.159  1.00  0.00     0.036 A 
HETATM   17  C15 UNL     1      25.852   0.309  51.827  1.00  0.00     0.167 C 
HETATM   18  N6  UNL     1      22.784   0.344  52.663  1.00  0.00    -0.350 N 
HETATM   19  C16 UNL     1      21.748  -0.208  51.876  1.00  0.00     0.089 C 
HETATM   20  C17 UNL     1      21.189   0.308  50.822  1.00  0.00     0.017 C 
HETATM   21  C18 UNL     1      20.713   1.062  49.684  1.00  0.00     0.026 C 
HETATM   22  C19 UNL     1      21.547   2.030  49.913  1.00  0.00     0.191 A 
HETATM   23  F1  UNL     1      20.890   2.498  48.781  1.00  0.00    -0.337 F 
HETATM   24  C20 UNL     1      22.025   3.246  49.523  1.00  0.00     0.140 A 
HETATM   25  C21 UNL     1      22.439   4.257  49.211  1.00  0.00    -0.112 C 
HETATM   26  C22 UNL     1      22.967   5.570  48.834  1.00  0.00     0.087 C 
HETATM   27  C25 UNL     1      24.396   5.465  48.930  1.00  0.00     0.289 C 
HETATM   28  H18 UNL     1      22.627   1.371  52.706  1.00  0.00     0.166 HD
ENDROOT
BRANCH   1  29
HETATM   29  C4  UNL     1      25.509   7.087  50.274  1.00  0.00     0.273 C 
BRANCH  29  30
HETATM   30  C3  UNL     1      25.696   8.567  50.068  1.00  0.00     0.030 C 
BRANCH  30  31
HETATM   31  C2  UNL     1      27.094   9.072  50.288  1.00  0.00    -0.003 C 
HETATM   32  C1  UNL     1      27.888   9.257  49.021  1.00  0.00     0.005 C 
ENDBRANCH  30  31
ENDBRANCH  29  30
ENDBRANCH   1  29
BRANCH  26  33
HETATM   33  C23 UNL     1      22.148   6.662  49.368  1.00  0.00     0.014 C 
HETATM   34  C24 UNL     1      21.941   6.614  50.841  1.00  0.00     0.006 C 
ENDBRANCH  26  33
TORSDOF 4
ENDMDL
