ROOT
HETATM    1  C5  UNL     1      26.073   3.238  50.300  1.00  0.00     0.105 A 
HETATM    2  C6  UNL     1      26.796   4.110  49.615  1.00  0.00     0.050 A 
HETATM    3  C7  UNL     1      26.244   5.304  48.988  1.00  0.00     0.025 A 
HETATM    4  C8  UNL     1      24.946   5.535  49.104  1.00  0.00     0.030 A 
HETATM    5 CL1  UNL     1      24.109   6.915  48.421  1.00  0.00    -0.087 Cl
HETATM    6  C9  UNL     1      23.999   4.665  49.811  1.00  0.00     0.183 A 
HETATM    7  N3  UNL     1      24.670   3.540  50.433  1.00  0.00    -0.313 N 
ENDROOT
BRANCH   1   8
HETATM    8  N2  UNL     1      26.680   2.101  50.875  1.00  0.00    -0.365 N 
HETATM    9  H7  UNL     1      26.974   1.590  50.002  1.00  0.00     0.162 HD
BRANCH   8  10
HETATM   10  C4  UNL     1      26.875   1.697  52.253  1.00  0.00     0.131 C 
HETATM   11  C3  UNL     1      27.030   0.232  52.396  1.00  0.00     0.031 C 
HETATM   12  C2  UNL     1      27.595  -0.568  53.270  1.00  0.00     0.025 C 
HETATM   13  C21 UNL     1      28.309  -0.158  54.497  1.00  0.00     0.029 C 
HETATM   14  C20 UNL     1      28.865   1.025  54.695  1.00  0.00     0.002 C 
HETATM   15  C19 UNL     1      28.923   2.184  53.813  1.00  0.00    -0.002 C 
HETATM   16  C18 UNL     1      28.058   2.375  52.834  1.00  0.00     0.002 C 
BRANCH  12  17
HETATM   17  N1  UNL     1      27.568  -2.000  53.111  1.00  0.00    -0.394 N 
HETATM   18  C1  UNL     1      28.886  -2.642  53.158  1.00  0.00     0.146 C 
HETATM   19  H4  UNL     1      26.726  -2.629  52.966  1.00  0.00     0.159 HD
ENDBRANCH  12  17
ENDBRANCH   8  10
ENDBRANCH   1   8
BRANCH   7  20
HETATM   20  C10 UNL     1      23.843   2.684  51.248  1.00  0.00     0.134 A 
HETATM   21  C11 UNL     1      23.126   2.716  52.361  1.00  0.00     0.083 A 
HETATM   22  C12 UNL     1      22.729   1.324  52.235  1.00  0.00     0.074 A 
HETATM   23  N5  UNL     1      23.430   1.304  51.153  1.00  0.00    -0.230 NA
BRANCH  22  24
HETATM   24  C13 UNL     1      21.924   0.337  52.946  1.00  0.00     0.010 A 
HETATM   25  C14 UNL     1      22.550  -0.534  53.815  1.00  0.00     0.017 A 
HETATM   26  C15 UNL     1      21.707  -1.435  54.446  1.00  0.00     0.020 A 
HETATM   27  C16 UNL     1      20.334  -1.491  54.244  1.00  0.00     0.116 A 
HETATM   28  N4  UNL     1      19.790  -0.610  53.382  1.00  0.00    -0.272 NA
HETATM   29  C17 UNL     1      20.555   0.292  52.738  1.00  0.00     0.130 A 
ENDBRANCH  22  24
ENDBRANCH   7  20
TORSDOF 5
ENDMDL
