ROOT
HETATM    1  C6  UNL     1      26.266  -0.087  53.543  1.00  0.00     0.000 C 
HETATM    2  C7  UNL     1      27.237  -0.334  54.374  1.00  0.00     0.118 C 
HETATM    3  N2  UNL     1      27.890   0.573  54.958  1.00  0.00    -0.171 NA
HETATM    4  N3  UNL     1      28.600   1.751  54.653  1.00  0.00    -0.271 N 
HETATM    5  C8  UNL     1      28.650   2.450  53.409  1.00  0.00     0.227 C 
HETATM    6  N4  UNL     1      27.959   2.475  52.309  1.00  0.00    -0.225 NA
HETATM    7  C9  UNL     1      26.786   1.740  51.913  1.00  0.00     0.126 C 
HETATM    8  C18 UNL     1      26.044   0.709  52.340  1.00  0.00     0.064 C 
HETATM    9  H11 UNL     1      29.146   2.130  55.445  1.00  0.00     0.190 HD
ENDROOT
BRANCH   7  10
HETATM   10  N5  UNL     1      26.309   2.317  50.704  1.00  0.00    -0.366 N 
HETATM   11  H13 UNL     1      26.759   1.820  49.932  1.00  0.00     0.161 HD
BRANCH  10  12
HETATM   12  C10 UNL     1      25.367   3.388  51.058  1.00  0.00     0.112 C 
HETATM   13  C11 UNL     1      25.466   4.564  50.101  1.00  0.00     0.037 C 
BRANCH  12  14
HETATM   14  C12 UNL     1      23.973   2.902  51.168  1.00  0.00    -0.036 A 
HETATM   15  C13 UNL     1      23.373   2.176  50.136  1.00  0.00     0.009 A 
HETATM   16  C14 UNL     1      22.087   1.678  50.135  1.00  0.00     0.001 A 
HETATM   17  C15 UNL     1      21.339   1.922  51.248  1.00  0.00     0.000 A 
HETATM   18  C16 UNL     1      21.854   2.633  52.319  1.00  0.00     0.001 A 
HETATM   19  C17 UNL     1      23.157   3.111  52.263  1.00  0.00     0.009 A 
ENDBRANCH  12  14
ENDBRANCH  10  12
ENDBRANCH   7  10
BRANCH   1  20
HETATM   20  C5  UNL     1      25.035  -0.794  53.880  1.00  0.00     0.010 C 
HETATM   21  C4  UNL     1      23.898  -0.396  53.334  1.00  0.00    -0.024 C 
BRANCH  21  22
HETATM   22  C3  UNL     1      22.499  -0.887  53.461  1.00  0.00     0.057 C 
BRANCH  22  23
HETATM   23  C2  UNL     1      21.893  -0.509  54.792  1.00  0.00     0.272 C 
BRANCH  23  24
HETATM   24  N1  UNL     1      20.545   0.009  54.678  1.00  0.00     0.079 N 
HETATM   25  C1  UNL     1      19.879  -0.578  53.553  1.00  0.00     0.306 C 
HETATM   26  H4  UNL     1      20.515   1.030  54.734  1.00  0.00     0.315 HD
ENDBRANCH  23  24
ENDBRANCH  22  23
ENDBRANCH  21  22
ENDBRANCH   1  20
TORSDOF 7
ENDMDL
