ROOT
HETATM    1  C8  UNL     1      23.441   3.421  50.292  1.00  0.00     0.095 C 
HETATM    2  C9  UNL     1      23.418   4.328  51.523  1.00  0.00     0.051 C 
HETATM    3  C10 UNL     1      23.671   5.615  51.824  1.00  0.00     0.001 C 
HETATM    4  C11 UNL     1      24.083   6.972  51.347  1.00  0.00    -0.028 C 
HETATM    5  C12 UNL     1      24.301   7.292  50.082  1.00  0.00    -0.011 C 
HETATM    6  C13 UNL     1      24.351   7.027  48.657  1.00  0.00     0.128 A 
HETATM    7  C14 UNL     1      24.558   7.161  47.372  1.00  0.00     0.127 A 
HETATM    8  S1  UNL     1      25.116   8.577  48.345  1.00  0.00     0.040 S 
HETATM    9  O2  UNL     1      25.535   9.715  47.468  1.00  0.00    -0.248 OA
HETATM   10  N2  UNL     1      26.635   7.938  49.206  1.00  0.00    -0.326 N 
HETATM   11  C15 UNL     1      26.963   6.535  48.924  1.00  0.00     0.096 C 
HETATM   12  C16 UNL     1      26.826   5.202  48.865  1.00  0.00     0.014 C 
HETATM   13  C17 UNL     1      25.941   4.081  49.173  1.00  0.00    -0.018 C 
HETATM   14  C18 UNL     1      24.840   3.518  49.637  1.00  0.00     0.041 C 
HETATM   15  H16 UNL     1      27.211   8.508  49.852  1.00  0.00     0.174 HD
ENDROOT
BRANCH   1  16
HETATM   16  N1  UNL     1      23.313   2.107  50.814  1.00  0.00    -0.383 N 
HETATM   17  H8  UNL     1      23.328   1.569  49.923  1.00  0.00     0.160 HD
BRANCH  16  18
HETATM   18  C7  UNL     1      23.182   1.130  51.778  1.00  0.00     0.042 A 
HETATM   19  C6  UNL     1      24.320   0.806  52.492  1.00  0.00     0.019 A 
HETATM   20  C5  UNL     1      25.569   1.337  52.411  1.00  0.00     0.019 A 
HETATM   21  C21 UNL     1      24.208  -0.186  53.433  1.00  0.00     0.071 A 
HETATM   22  C4  UNL     1      26.637   0.956  53.166  1.00  0.00     0.038 A 
HETATM   23  C3  UNL     1      26.496  -0.057  54.120  1.00  0.00     0.070 A 
HETATM   24  C22 UNL     1      25.247  -0.625  54.237  1.00  0.00     0.069 A 
HETATM   25  N3  UNL     1      23.064  -0.819  53.665  1.00  0.00    -0.260 NA
HETATM   26  C20 UNL     1      21.947  -0.550  53.015  1.00  0.00     0.119 A 
HETATM   27  C19 UNL     1      22.037   0.428  52.080  1.00  0.00     0.049 A 
BRANCH  23  28
HETATM   28  O1  UNL     1      27.649  -0.357  54.827  1.00  0.00    -0.351 OA
BRANCH  28  29
HETATM   29  C2  UNL     1      28.898   0.126  54.406  1.00  0.00     0.171 C 
HETATM   30  C1  UNL     1      29.742  -0.908  53.709  1.00  0.00     0.034 C 
ENDBRANCH  28  29
ENDBRANCH  23  28
ENDBRANCH  16  18
ENDBRANCH   1  16
TORSDOF 4
ENDMDL
