ROOT
HETATM    1  C1  UNL     1      22.352  -1.335  55.004  1.00  0.00     0.099 C 
HETATM    2  C2  UNL     1      22.543  -0.561  53.954  1.00  0.00    -0.126 C 
HETATM    3  C3  UNL     1      22.614   0.352  52.992  1.00  0.00     0.077 C 
HETATM    4  C4  UNL     1      23.536   1.440  53.163  1.00  0.00     0.050 C 
ENDROOT
BRANCH   3   5
HETATM    5  N4  UNL     1      21.777   0.144  51.870  1.00  0.00    -0.319 N 
HETATM    6  C15 UNL     1      20.522   0.784  51.881  1.00  0.00     0.246 C 
HETATM    7  O1  UNL     1      20.007   1.541  52.784  1.00  0.00    -0.271 OA
HETATM    8  H12 UNL     1      21.632  -0.309  50.943  1.00  0.00     0.169 HD
BRANCH   6   9
HETATM    9  C16 UNL     1      19.314   0.948  51.065  1.00  0.00     0.278 C 
BRANCH   9  10
HETATM   10  O2  UNL     1      19.626   0.934  49.683  1.00  0.00    -0.342 OA
BRANCH  10  11
HETATM   11  C17 UNL     1      20.328   1.966  49.117  1.00  0.00     0.069 A 
HETATM   12  C18 UNL     1      20.039   3.307  49.118  1.00  0.00     0.040 A 
HETATM   13  C19 UNL     1      20.904   4.190  48.472  1.00  0.00     0.045 A 
HETATM   14  C20 UNL     1      22.030   3.731  47.843  1.00  0.00     0.116 A 
HETATM   15  F1  UNL     1      22.835   4.623  47.233  1.00  0.00    -0.206 F 
HETATM   16  C21 UNL     1      22.389   2.381  47.801  1.00  0.00     0.045 A 
HETATM   17  C22 UNL     1      21.482   1.551  48.465  1.00  0.00     0.040 A 
ENDBRANCH  10  11
ENDBRANCH   9  10
ENDBRANCH   6   9
ENDBRANCH   3   5
BRANCH   4  18
HETATM   18  C5  UNL     1      23.777   2.439  52.308  1.00  0.00     0.010 A 
HETATM   19  C6  UNL     1      22.944   3.646  52.161  1.00  0.00     0.192 A 
HETATM   20  N1  UNL     1      23.459   4.478  51.112  1.00  0.00    -0.278 NA
HETATM   21  C7  UNL     1      24.483   4.254  50.405  1.00  0.00     0.229 A 
HETATM   22  N2  UNL     1      25.303   3.110  50.545  1.00  0.00    -0.224 NA
HETATM   23  C8  UNL     1      24.977   2.237  51.451  1.00  0.00     0.137 A 
BRANCH  23  24
HETATM   24  N3  UNL     1      25.823   1.079  51.558  1.00  0.00    -0.340 N 
HETATM   25  H7  UNL     1      25.511   0.243  50.980  1.00  0.00     0.167 HD
BRANCH  24  26
HETATM   26  C9  UNL     1      26.986   1.141  52.414  1.00  0.00     0.035 A 
HETATM   27  C10 UNL     1      27.467   2.270  53.028  1.00  0.00     0.029 A 
HETATM   28  C11 UNL     1      28.594   2.183  53.803  1.00  0.00     0.004 A 
HETATM   29  C12 UNL     1      29.297   1.028  54.018  1.00  0.00     0.019 A 
HETATM   30  C13 UNL     1      28.848  -0.142  53.418  1.00  0.00     0.013 A 
HETATM   31 BR1  UNL     1      29.622  -1.886  53.534  1.00  0.00    -0.051 Br
HETATM   32  C14 UNL     1      27.705  -0.042  52.635  1.00  0.00     0.048 A 
ENDBRANCH  24  26
ENDBRANCH  23  24
ENDBRANCH   4  18
TORSDOF 7
ENDMDL
