ROOT
HETATM    1  C10 UNL     1      25.925  -0.050  52.982  1.00  0.00     0.035 A 
HETATM    2  C11 UNL     1      26.556  -1.241  52.632  1.00  0.00     0.030 A 
HETATM    3  C12 UNL     1      27.870  -1.541  52.854  1.00  0.00     0.010 A 
HETATM    4  C13 UNL     1      28.671  -0.605  53.476  1.00  0.00    -0.041 A 
HETATM    5  C14 UNL     1      30.089  -1.022  53.668  1.00  0.00     0.049 C 
HETATM    6  C15 UNL     1      28.096   0.590  53.843  1.00  0.00     0.052 A 
HETATM    7  C16 UNL     1      28.982   1.522  54.488  1.00  0.00     0.100 C 
HETATM    8  N4  UNL     1      29.700   2.290  55.006  1.00  0.00    -0.191 NA
HETATM    9  C17 UNL     1      26.782   0.850  53.604  1.00  0.00     0.052 A 
ENDROOT
BRANCH   1  10
HETATM   10  N3  UNL     1      24.550   0.199  52.715  1.00  0.00    -0.340 N 
HETATM   11  H12 UNL     1      24.416   0.776  51.867  1.00  0.00     0.167 HD
BRANCH  10  12
HETATM   12  C9  UNL     1      23.444  -0.275  53.433  1.00  0.00     0.144 A 
HETATM   13  N2  UNL     1      23.723  -0.913  54.594  1.00  0.00    -0.223 NA
HETATM   14  C8  UNL     1      22.726  -1.401  55.335  1.00  0.00     0.236 A 
HETATM   15  N1  UNL     1      21.415  -1.282  54.963  1.00  0.00    -0.241 NA
HETATM   16  C7  UNL     1      21.066  -0.665  53.831  1.00  0.00     0.077 A 
HETATM   17  C6  UNL     1      19.758  -0.496  53.394  1.00  0.00     0.072 A 
HETATM   18  C18 UNL     1      22.117  -0.168  53.083  1.00  0.00     0.075 A 
HETATM   19  C5  UNL     1      19.442   0.170  52.201  1.00  0.00     0.108 A 
HETATM   20  C20 UNL     1      20.521   0.650  51.489  1.00  0.00     0.136 A 
HETATM   21  C19 UNL     1      21.819   0.487  51.915  1.00  0.00     0.121 A 
HETATM   22  O2  UNL     1      20.186   1.300  50.330  1.00  0.00    -0.344 OA
HETATM   23  O3  UNL     1      22.768   1.022  51.098  1.00  0.00    -0.345 OA
HETATM   24  C22 UNL     1      22.435   2.103  50.254  1.00  0.00     0.202 C 
HETATM   25  C21 UNL     1      21.172   1.767  49.449  1.00  0.00     0.202 C 
BRANCH  19  26
HETATM   26  O1  UNL     1      18.105   0.193  52.004  1.00  0.00    -0.333 OA
BRANCH  26  27
HETATM   27  C3  UNL     1      17.231  -0.723  51.464  1.00  0.00     0.186 C 
HETATM   28  C4  UNL     1      16.094  -1.141  52.385  1.00  0.00     0.052 C 
BRANCH  27  29
HETATM   29  S1  UNL     1      16.634  -0.191  49.857  1.00  0.00    -0.138 SA
BRANCH  29  30
HETATM   30  C2  UNL     1      16.776   1.597  49.617  1.00  0.00     0.072 C 
HETATM   31  C1  UNL     1      15.697   2.316  50.435  1.00  0.00     0.016 C 
ENDBRANCH  29  30
ENDBRANCH  27  29
ENDBRANCH  26  27
ENDBRANCH  19  26
ENDBRANCH  10  12
ENDBRANCH   1  10
TORSDOF 6
ENDMDL
