ROOT
HETATM    1  C4  UNL     1      21.792   2.755  51.928  1.00  0.00     0.081 A 
HETATM    2  C5  UNL     1      20.812   1.817  51.661  1.00  0.00     0.033 A 
HETATM    3  C6  UNL     1      21.165   0.487  51.759  1.00  0.00     0.005 A 
HETATM    4  C7  UNL     1      22.442   0.107  52.108  1.00  0.00     0.029 A 
HETATM    5  C8  UNL     1      23.437   1.025  52.379  1.00  0.00     0.036 A 
HETATM    6  C16 UNL     1      23.054   2.318  52.273  1.00  0.00     0.063 A 
ENDROOT
BRANCH   1   7
HETATM    7  N3  UNL     1      21.505   4.167  51.848  1.00  0.00    -0.151 NA
HETATM    8  N2  UNL     1      21.809   4.828  50.835  1.00  0.00    -0.162 NA
BRANCH   8   9
HETATM    9  C3  UNL     1      22.432   4.408  49.659  1.00  0.00     0.143 C 
HETATM   10  C2  UNL     1      23.660   4.360  49.244  1.00  0.00     0.053 C 
BRANCH  10  11
HETATM   11  C1  UNL     1      24.827   4.780  49.997  1.00  0.00     0.061 C 
HETATM   12  N1  UNL     1      24.897   4.812  51.284  1.00  0.00    -0.299 NA
HETATM   13  H1  UNL     1      24.113   4.536  51.871  1.00  0.00     0.187 HD
BRANCH  11  14
HETATM   14  C17 UNL     1      26.048   5.212  49.338  1.00  0.00     0.009 A 
HETATM   15  C18 UNL     1      26.254   6.493  48.848  1.00  0.00     0.016 A 
HETATM   16  C19 UNL     1      27.407   6.910  48.224  1.00  0.00     0.020 A 
HETATM   17  C20 UNL     1      28.451   6.029  48.053  1.00  0.00     0.116 A 
HETATM   18  N5  UNL     1      28.274   4.782  48.519  1.00  0.00    -0.272 NA
HETATM   19  C21 UNL     1      27.141   4.402  49.124  1.00  0.00     0.130 A 
ENDBRANCH  11  14
ENDBRANCH  10  11
ENDBRANCH   8   9
ENDBRANCH   1   7
BRANCH   5  20
HETATM   20  N4  UNL     1      24.713   0.522  52.728  1.00  0.00    -0.327 N 
HETATM   21  C9  UNL     1      25.977   0.896  52.230  1.00  0.00     0.226 C 
HETATM   22  O1  UNL     1      26.047   1.794  51.355  1.00  0.00    -0.273 OA
HETATM   23  H7  UNL     1      24.798  -0.231  53.447  1.00  0.00     0.169 HD
BRANCH  21  24
HETATM   24  C10 UNL     1      27.253   0.296  52.674  1.00  0.00     0.078 C 
HETATM   25  C11 UNL     1      27.637   0.848  54.031  1.00  0.00     0.014 C 
HETATM   26  C12 UNL     1      28.907   0.274  54.549  1.00  0.00     0.001 C 
HETATM   27  C13 UNL     1      29.458  -0.891  53.818  1.00  0.00     0.000 C 
HETATM   28  C14 UNL     1      28.516  -1.713  53.034  1.00  0.00     0.001 C 
HETATM   29  C15 UNL     1      27.117  -1.192  52.922  1.00  0.00     0.014 C 
ENDBRANCH  21  24
ENDBRANCH   5  20
TORSDOF 6
ENDMDL
