ROOT
HETATM    1  C6  UNL     1      24.001   1.138  52.630  1.00  0.00     0.134 C 
HETATM    2  C7  UNL     1      23.313   0.329  53.385  1.00  0.00     0.126 A 
HETATM    3  N2  UNL     1      23.915  -0.557  54.322  1.00  0.00    -0.357 N 
HETATM    4  C8  UNL     1      23.239  -1.480  55.191  1.00  0.00     0.273 A 
HETATM    5  N3  UNL     1      21.801  -1.421  55.015  1.00  0.00    -0.265 NA
HETATM    6  C9  UNL     1      21.226  -0.628  54.174  1.00  0.00     0.212 A 
HETATM    7  N4  UNL     1      21.911   0.281  53.319  1.00  0.00    -0.291 N 
HETATM    8  H10 UNL     1      24.951  -0.590  54.439  1.00  0.00     0.162 HD
ENDROOT
BRANCH   7   9
HETATM    9  C10 UNL     1      21.229   1.138  52.406  1.00  0.00     0.043 A 
HETATM   10  C11 UNL     1      20.427   2.166  52.855  1.00  0.00     0.032 A 
HETATM   11  C12 UNL     1      19.782   2.976  51.965  1.00  0.00     0.033 A 
HETATM   12  C13 UNL     1      19.910   2.795  50.613  1.00  0.00     0.044 A 
HETATM   13  C14 UNL     1      20.682   1.803  50.149  1.00  0.00    -0.004 A 
HETATM   14  N5  UNL     1      19.258   3.612  49.720  1.00  0.00    -0.351 N 
HETATM   15  C15 UNL     1      20.779   1.660  48.731  1.00  0.00     0.048 A 
HETATM   16  C17 UNL     1      21.328   0.993  51.052  1.00  0.00     0.044 A 
HETATM   17  P1  UNL     1      19.785   2.917  48.052  1.00  0.00     0.063 P 
HETATM   18  C16 UNL     1      18.377   4.730  49.879  1.00  0.00     0.155 C 
ENDBRANCH   7   9
BRANCH   1  19
HETATM   19  N1  UNL     1      25.421   1.213  52.672  1.00  0.00    -0.387 N 
HETATM   20  C5  UNL     1      26.343   0.613  51.713  1.00  0.00     0.123 C 
HETATM   21  C4  UNL     1      27.160  -0.405  52.505  1.00  0.00     0.028 C 
HETATM   22  C3  UNL     1      28.016   0.400  53.466  1.00  0.00     0.010 C 
HETATM   23  C19 UNL     1      27.076   1.052  54.459  1.00  0.00     0.028 C 
HETATM   24  C18 UNL     1      26.072   1.950  53.760  1.00  0.00     0.123 C 
BRANCH  22  25
HETATM   25  C2  UNL     1      28.945  -0.458  54.235  1.00  0.00    -0.032 C 
HETATM   26  C1  UNL     1      29.808  -1.281  53.644  1.00  0.00     0.007 C 
ENDBRANCH  22  25
ENDBRANCH   1  19
TORSDOF 3
ENDMDL
