ROOT
HETATM    1  C4  UNL     1      21.743   0.655  51.351  1.00  0.00     0.037 C 
HETATM    2  C5  UNL     1      22.751   0.295  52.134  1.00  0.00     0.045 C 
HETATM    3  C6  UNL     1      22.852  -0.388  53.397  1.00  0.00     0.041 A 
HETATM    4  C7  UNL     1      21.953  -1.028  54.222  1.00  0.00     0.074 A 
HETATM    5  N2  UNL     1      22.425  -1.562  55.336  1.00  0.00    -0.241 NA
HETATM    6  C8  UNL     1      23.723  -1.484  55.651  1.00  0.00     0.236 A 
HETATM    7  N3  UNL     1      24.571  -0.854  54.829  1.00  0.00    -0.224 NA
HETATM    8  C9  UNL     1      24.192  -0.289  53.689  1.00  0.00     0.142 A 
HETATM    9  C16 UNL     1      20.498  -1.255  54.120  1.00  0.00     0.057 C 
HETATM   10  C17 UNL     1      19.508  -0.728  53.398  1.00  0.00     0.137 C 
HETATM   11  O2  UNL     1      19.613   0.282  52.452  1.00  0.00    -0.357 OA
HETATM   12  C18 UNL     1      20.280   0.597  51.274  1.00  0.00     0.231 C 
ENDROOT
BRANCH   8  13
HETATM   13  N4  UNL     1      25.189   0.339  52.901  1.00  0.00    -0.340 N 
HETATM   14  H9  UNL     1      25.383   0.954  52.094  1.00  0.00     0.167 HD
BRANCH  13  15
HETATM   15  C10 UNL     1      26.571   0.161  53.222  1.00  0.00     0.035 A 
HETATM   16  C11 UNL     1      27.077  -1.084  52.845  1.00  0.00     0.032 A 
HETATM   17  C12 UNL     1      28.395  -1.429  53.045  1.00  0.00     0.046 A 
HETATM   18  C13 UNL     1      29.276  -0.533  53.640  1.00  0.00     0.138 A 
HETATM   19  F1  UNL     1      30.584  -0.735  53.895  1.00  0.00    -0.204 F 
HETATM   20  C14 UNL     1      28.807   0.703  54.024  1.00  0.00     0.074 A 
HETATM   21 CL1  UNL     1      29.720   1.993  54.787  1.00  0.00    -0.081 Cl
HETATM   22  C15 UNL     1      27.489   1.036  53.818  1.00  0.00     0.056 A 
ENDBRANCH  13  15
ENDBRANCH   8  13
BRANCH   1  23
HETATM   23  N1  UNL     1      22.170   1.327  50.171  1.00  0.00    -0.329 N 
HETATM   24  C3  UNL     1      22.409   2.706  49.995  1.00  0.00     0.221 C 
HETATM   25  O1  UNL     1      22.251   3.522  50.938  1.00  0.00    -0.273 OA
HETATM   26  H6  UNL     1      22.266   0.545  49.464  1.00  0.00     0.168 HD
BRANCH  24  27
HETATM   27  C2  UNL     1      22.846   2.980  48.597  1.00  0.00     0.098 C 
HETATM   28  C1  UNL     1      22.356   1.949  47.638  1.00  0.00     0.014 C 
ENDBRANCH  24  27
ENDBRANCH   1  23
TORSDOF 4
ENDMDL
