ROOT
HETATM    1  C1  UNL     1      21.635   3.931  45.210  1.00  0.00     0.017 C 
HETATM    2  C2  UNL     1      21.283   4.455  46.237  1.00  0.00    -0.089 C 
HETATM    3  C3  UNL     1      20.883   5.085  47.467  1.00  0.00     0.075 C 
HETATM    4  C4  UNL     1      20.768   4.388  48.585  1.00  0.00    -0.029 A 
HETATM    5  C5  UNL     1      21.051   2.960  48.568  1.00  0.00     0.010 A 
HETATM    6  C6  UNL     1      20.927   2.283  49.707  1.00  0.00     0.005 A 
HETATM    7  C7  UNL     1      20.518   2.880  51.009  1.00  0.00     0.153 A 
HETATM    8  C20 UNL     1      20.265   4.326  50.877  1.00  0.00     0.005 A 
HETATM    9  C21 UNL     1      20.361   5.071  49.804  1.00  0.00     0.010 A 
ENDROOT
BRANCH   7  10
HETATM   10  N1  UNL     1      21.566   2.609  51.950  1.00  0.00    -0.275 NA
BRANCH  10  11
HETATM   11  P1  UNL     1      22.665   1.438  51.773  1.00  0.00     0.114 P 
BRANCH  11  12
HETATM   12  C8  UNL     1      24.399   1.991  51.517  1.00  0.00     0.106 A 
HETATM   13  N2  UNL     1      24.672   2.972  50.623  1.00  0.00    -0.238 NA
HETATM   14  C9  UNL     1      25.949   3.359  50.452  1.00  0.00     0.234 A 
HETATM   15  N3  UNL     1      26.967   2.791  51.153  1.00  0.00    -0.241 NA
HETATM   16  C10 UNL     1      26.673   1.814  52.038  1.00  0.00     0.076 A 
HETATM   17  C11 UNL     1      27.698   1.241  52.745  1.00  0.00     0.072 A 
HETATM   18  C17 UNL     1      25.387   1.376  52.256  1.00  0.00     0.061 A 
HETATM   19  C12 UNL     1      27.495   0.239  53.668  1.00  0.00     0.107 A 
HETATM   20  C15 UNL     1      26.203  -0.211  53.895  1.00  0.00     0.136 A 
HETATM   21  C16 UNL     1      25.154   0.371  53.177  1.00  0.00     0.120 A 
HETATM   22  O3  UNL     1      25.774  -1.199  54.771  1.00  0.00    -0.344 OA
HETATM   23  O2  UNL     1      23.806   0.037  53.287  1.00  0.00    -0.345 OA
HETATM   24  C18 UNL     1      23.400  -0.888  54.289  1.00  0.00     0.202 C 
HETATM   25  C19 UNL     1      24.481  -1.097  55.318  1.00  0.00     0.202 C 
BRANCH  19  26
HETATM   26  O1  UNL     1      28.430  -0.417  54.438  1.00  0.00    -0.348 OA
BRANCH  26  27
HETATM   27  C13 UNL     1      29.592  -1.051  53.893  1.00  0.00     0.171 C 
HETATM   28  C14 UNL     1      29.230  -2.372  53.261  1.00  0.00     0.034 C 
ENDBRANCH  26  27
ENDBRANCH  19  26
ENDBRANCH  11  12
ENDBRANCH  10  11
ENDBRANCH   7  10
TORSDOF 5
ENDMDL
