ROOT
HETATM    1  C7  UNL     1      24.070   1.034  52.232  1.00  0.00     0.006 A 
HETATM    2  C8  UNL     1      22.776   0.492  52.150  1.00  0.00     0.155 A 
HETATM    3  O2  UNL     1      22.104   1.038  51.169  1.00  0.00    -0.321 OA
HETATM    4  C9  UNL     1      22.824   1.933  50.540  1.00  0.00     0.086 A 
HETATM    5  C10 UNL     1      22.592   2.766  49.470  1.00  0.00     0.039 A 
HETATM    6  C11 UNL     1      23.572   3.643  49.003  1.00  0.00     0.017 A 
HETATM    7  C12 UNL     1      24.797   3.632  49.674  1.00  0.00    -0.001 A 
HETATM    8  C18 UNL     1      24.978   2.784  50.735  1.00  0.00     0.029 A 
HETATM    9  C19 UNL     1      24.020   1.916  51.203  1.00  0.00     0.011 A 
ENDROOT
BRANCH   1  10
HETATM   10  C6  UNL     1      25.070   0.643  53.214  1.00  0.00    -0.040 A 
HETATM   11  C5  UNL     1      25.042  -0.131  54.274  1.00  0.00     0.009 A 
HETATM   12  C4  UNL     1      26.309  -0.239  54.983  1.00  0.00     0.017 A 
HETATM   13  C3  UNL     1      27.131   0.525  54.290  1.00  0.00     0.013 A 
HETATM   14  C20 UNL     1      26.465   1.148  53.132  1.00  0.00     0.087 A 
BRANCH  13  15
HETATM   15  S1  UNL     1      28.836   0.902  54.524  1.00  0.00     0.045 S 
HETATM   16  O1  UNL     1      29.159   2.365  54.521  1.00  0.00    -0.253 OA
BRANCH  15  17
HETATM   17  C2  UNL     1      29.925  -0.058  53.471  1.00  0.00     0.109 C 
HETATM   18  C1  UNL     1      29.313  -1.447  53.347  1.00  0.00     0.019 C 
ENDBRANCH  15  17
ENDBRANCH  13  15
ENDBRANCH   1  10
BRANCH   7  19
HETATM   19  C13 UNL     1      25.846   4.536  49.214  1.00  0.00     0.086 A 
HETATM   20  C14 UNL     1      25.732   5.872  48.945  1.00  0.00     0.040 A 
HETATM   21  C15 UNL     1      26.983   6.293  48.544  1.00  0.00     0.035 A 
HETATM   22  C16 UNL     1      27.801   5.189  48.588  1.00  0.00     0.050 A 
HETATM   23  C17 UNL     1      29.232   5.335  48.202  1.00  0.00     0.076 C 
HETATM   24  O3  UNL     1      27.084   4.162  48.992  1.00  0.00    -0.315 OA
ENDBRANCH   7  19
TORSDOF 4
ENDMDL
