ROOT
HETATM    1  N1  UNL     1      17.152   0.458  51.510  1.00  0.00    -0.191 NA
HETATM    2  C1  UNL     1      18.227   0.731  51.761  1.00  0.00     0.110 C 
HETATM    3  C2  UNL     1      19.604   1.079  52.061  1.00  0.00     0.125 C 
HETATM    4  C3  UNL     1      19.877   2.468  52.273  1.00  0.00     0.110 C 
HETATM    5  N2  UNL     1      20.089   3.585  52.427  1.00  0.00    -0.191 NA
HETATM    6  C4  UNL     1      20.539   0.154  52.132  1.00  0.00     0.045 C 
ENDROOT
BRANCH   6   7
HETATM    7  C5  UNL     1      21.975   0.231  52.413  1.00  0.00    -0.034 A 
HETATM    8  C6  UNL     1      22.838   1.003  51.629  1.00  0.00     0.014 A 
HETATM    9  C7  UNL     1      24.180   1.035  51.943  1.00  0.00     0.031 A 
HETATM   10  C8  UNL     1      24.590   0.277  53.047  1.00  0.00     0.037 A 
HETATM   11  C9  UNL     1      23.779  -0.497  53.849  1.00  0.00    -0.029 A 
HETATM   12  N3  UNL     1      25.931   0.185  53.516  1.00  0.00    -0.372 N 
HETATM   13  C10 UNL     1      22.443  -0.507  53.506  1.00  0.00     0.021 A 
HETATM   14  C11 UNL     1      24.639  -1.119  54.915  1.00  0.00     0.060 C 
HETATM   15  C12 UNL     1      25.761  -0.096  54.957  1.00  0.00     0.128 C 
BRANCH  12  16
HETATM   16  C13 UNL     1      27.243   0.319  52.902  1.00  0.00     0.111 A 
HETATM   17  C14 UNL     1      27.828  -1.035  52.852  1.00  0.00    -0.002 A 
HETATM   18  C15 UNL     1      29.011  -1.482  53.243  1.00  0.00    -0.002 A 
HETATM   19  C16 UNL     1      29.872  -0.455  53.816  1.00  0.00    -0.004 A 
HETATM   20  C17 UNL     1      29.417   0.785  53.889  1.00  0.00    -0.024 A 
HETATM   21  C18 UNL     1      28.100   1.384  53.468  1.00  0.00     0.056 A 
ENDBRANCH  12  16
ENDBRANCH   6   7
TORSDOF 2
ENDMDL
