ROOT
HETATM    1  C7  UNL     1      22.689   0.439  53.024  1.00  0.00     0.009 A 
HETATM    2  C8  UNL     1      21.742  -0.037  53.928  1.00  0.00     0.155 A 
HETATM    3  O2  UNL     1      20.611  -0.043  53.278  1.00  0.00    -0.321 OA
HETATM    4  C9  UNL     1      20.753   0.377  52.062  1.00  0.00     0.086 A 
HETATM    5  C10 UNL     1      19.855   0.547  51.004  1.00  0.00     0.039 A 
HETATM    6  C11 UNL     1      20.293   1.026  49.789  1.00  0.00     0.011 A 
HETATM    7  C12 UNL     1      21.622   1.339  49.612  1.00  0.00    -0.049 A 
HETATM    8  C17 UNL     1      22.553   1.195  50.610  1.00  0.00     0.023 A 
HETATM    9  C18 UNL     1      22.077   0.715  51.810  1.00  0.00     0.011 A 
ENDROOT
BRANCH   1  10
HETATM   10  C6  UNL     1      24.097   0.596  53.374  1.00  0.00    -0.023 A 
HETATM   11  C5  UNL     1      24.809  -0.537  53.719  1.00  0.00     0.014 A 
HETATM   12  C4  UNL     1      26.140  -0.456  54.059  1.00  0.00     0.022 A 
HETATM   13  C3  UNL     1      26.726   0.791  54.042  1.00  0.00     0.031 A 
HETATM   14  C20 UNL     1      26.034   1.911  53.705  1.00  0.00     0.022 A 
HETATM   15  C19 UNL     1      24.700   1.852  53.361  1.00  0.00     0.014 A 
BRANCH  13  16
HETATM   16  S1  UNL     1      28.433   0.929  54.475  1.00  0.00     0.049 S 
HETATM   17  O1  UNL     1      28.852   2.389  54.551  1.00  0.00    -0.253 OA
BRANCH  16  18
HETATM   18  C2  UNL     1      29.487   0.153  53.243  1.00  0.00     0.109 C 
HETATM   19  C1  UNL     1      29.632  -1.329  53.489  1.00  0.00     0.019 C 
ENDBRANCH  16  18
ENDBRANCH  13  16
ENDBRANCH   1  10
BRANCH   7  20
HETATM   20  C13 UNL     1      22.061   1.854  48.285  1.00  0.00     0.044 A 
HETATM   21  C14 UNL     1      23.075   2.881  48.293  1.00  0.00    -0.021 A 
HETATM   22  C15 UNL     1      22.286   3.791  47.812  1.00  0.00    -0.029 A 
HETATM   23  C16 UNL     1      21.149   2.900  47.730  1.00  0.00     0.040 A 
ENDBRANCH   7  20
TORSDOF 4
ENDMDL
