ROOT
HETATM    1  C10 UNL     1      25.546   0.423  53.961  1.00  0.00     0.146 A 
HETATM    2  C11 UNL     1      26.071  -0.041  55.229  1.00  0.00     0.235 A 
HETATM    3  O1  UNL     1      27.246   0.391  55.486  1.00  0.00    -0.272 OA
HETATM    4  N1  UNL     1      25.120  -0.870  55.865  1.00  0.00    -0.326 N 
HETATM    5  C12 UNL     1      24.006  -0.921  55.005  1.00  0.00     0.042 A 
HETATM    6  C13 UNL     1      22.869  -1.646  55.294  1.00  0.00     0.030 A 
HETATM    7  C14 UNL     1      21.814  -1.661  54.406  1.00  0.00     0.002 A 
HETATM    8  C15 UNL     1      21.929  -0.940  53.239  1.00  0.00     0.001 A 
HETATM    9  C16 UNL     1      23.091  -0.241  53.018  1.00  0.00     0.011 A 
HETATM   10  C17 UNL     1      24.191  -0.166  53.839  1.00  0.00    -0.014 A 
HETATM   11  H16 UNL     1      25.351  -1.284  56.787  1.00  0.00     0.169 HD
ENDROOT
BRANCH   1  12
HETATM   12  C4  UNL     1      26.399   0.159  52.795  1.00  0.00    -0.043 C 
HETATM   13  C5  UNL     1      26.627   0.972  51.766  1.00  0.00    -0.018 C 
BRANCH  12  14
HETATM   14  C3  UNL     1      27.140  -1.125  52.796  1.00  0.00     0.027 C 
HETATM   15  C2  UNL     1      28.372  -1.456  53.026  1.00  0.00     0.008 C 
HETATM   16  C1  UNL     1      28.937  -2.846  52.971  1.00  0.00     0.062 C 
HETATM   17 CL1  UNL     1      29.823  -0.548  53.507  1.00  0.00    -0.089 Cl
ENDBRANCH  12  14
BRANCH  13  18
HETATM   18  C6  UNL     1      26.335   2.234  51.124  1.00  0.00     0.031 C 
BRANCH  18  19
HETATM   19  C7  UNL     1      24.865   2.522  50.892  1.00  0.00    -0.019 C 
HETATM   20  C8  UNL     1      24.622   3.293  49.636  1.00  0.00     0.010 C 
HETATM   21  C9  UNL     1      24.364   3.305  52.086  1.00  0.00     0.010 C 
ENDBRANCH  18  19
ENDBRANCH  13  18
ENDBRANCH   1  12
TORSDOF 4
ENDMDL
