ROOT
HETATM    1  C3  UNL     1      23.927   0.776  52.899  1.00  0.00     0.021 A 
HETATM    2  C4  UNL     1      24.997   0.113  53.258  1.00  0.00     0.027 A 
HETATM    3  C5  UNL     1      26.402   0.050  52.954  1.00  0.00     0.096 A 
HETATM    4  C8  UNL     1      26.908   0.997  51.949  1.00  0.00     0.018 A 
HETATM    5  C9  UNL     1      26.375   1.944  51.183  1.00  0.00     0.084 A 
HETATM    6  N2  UNL     1      24.987   2.230  51.228  1.00  0.00    -0.383 N 
HETATM    7  C14 UNL     1      23.823   1.835  51.925  1.00  0.00     0.178 A 
ENDROOT
BRANCH   3   8
HETATM    8  C6  UNL     1      26.671  -1.326  52.414  1.00  0.00     0.256 C 
HETATM    9  O1  UNL     1      27.159  -2.210  53.054  1.00  0.00    -0.305 OA
ENDBRANCH   3   8
BRANCH   3  10
HETATM   10  P1  UNL     1      27.489   0.239  54.449  1.00  0.00     0.035 P 
HETATM   11  H9  UNL     1      27.644  -1.005  55.171  1.00  0.00     0.089 HD
BRANCH  10  12
HETATM   12  O2  UNL     1      29.046   0.816  53.886  1.00  0.00    -0.370 OA
HETATM   13  C7  UNL     1      29.947  -0.206  53.697  1.00  0.00     0.207 C 
ENDBRANCH  10  12
ENDBRANCH   3  10
BRANCH   1  14
HETATM   14  N1  UNL     1      22.620   0.580  53.427  1.00  0.00    -0.392 N 
HETATM   15  H6  UNL     1      22.153   1.413  53.877  1.00  0.00     0.159 HD
BRANCH  14  16
HETATM   16  C2  UNL     1      22.101  -0.787  53.281  1.00  0.00     0.115 C 
HETATM   17  C1  UNL     1      21.614  -1.221  54.654  1.00  0.00     0.026 C 
ENDBRANCH  14  16
ENDBRANCH   1  14
BRANCH   6  18
HETATM   18  C10 UNL     1      24.510   3.247  50.288  1.00  0.00     0.141 C 
BRANCH  18  19
HETATM   19  C11 UNL     1      24.569   4.638  50.812  1.00  0.00     0.135 C 
BRANCH  19  20
HETATM   20  N3  UNL     1      25.432   5.477  50.110  1.00  0.00    -0.419 N 
HETATM   21  C12 UNL     1      25.321   6.877  50.307  1.00  0.00     0.142 C 
HETATM   22  C13 UNL     1      26.312   5.017  49.131  1.00  0.00     0.142 C 
ENDBRANCH  19  20
ENDBRANCH  18  19
ENDBRANCH   6  18
TORSDOF 8
ENDMDL
