ROOT
HETATM    1  C2  UNL     1      24.186   4.085  49.651  1.00  0.00     0.103 A 
HETATM    2  C3  UNL     1      23.440   3.231  48.970  1.00  0.00     0.073 A 
HETATM    3  C4  UNL     1      22.210   3.169  49.609  1.00  0.00     0.182 A 
HETATM    4  N2  UNL     1      20.889   3.277  48.952  1.00  0.00    -0.242 NA
HETATM    5  C12 UNL     1      19.986   3.833  49.817  1.00  0.00     0.230 C 
HETATM    6  N3  UNL     1      19.964   4.389  51.156  1.00  0.00    -0.254 NA
HETATM    7  C13 UNL     1      21.150   4.481  51.752  1.00  0.00     0.132 C 
HETATM    8  C14 UNL     1      22.123   4.046  50.742  1.00  0.00     0.050 A 
HETATM    9  C15 UNL     1      23.373   4.598  50.746  1.00  0.00     0.113 A 
ENDROOT
BRANCH   3  10
HETATM   10  N1  UNL     1      22.064   1.711  50.122  1.00  0.00    -0.350 N 
HETATM   11  C5  UNL     1      21.601   0.941  48.950  1.00  0.00     0.153 C 
BRANCH  10  12
HETATM   12  C6  UNL     1      22.315   1.002  51.313  1.00  0.00     0.032 A 
HETATM   13  C7  UNL     1      23.472   0.972  52.045  1.00  0.00     0.031 A 
HETATM   14  C8  UNL     1      23.684   0.316  53.234  1.00  0.00     0.026 A 
HETATM   15  C9  UNL     1      22.579  -0.359  53.675  1.00  0.00     0.034 A 
HETATM   16 CL1  UNL     1      22.663  -1.253  55.177  1.00  0.00    -0.084 Cl
HETATM   17  C10 UNL     1      21.384  -0.378  52.998  1.00  0.00     0.026 A 
HETATM   18  C11 UNL     1      21.244   0.303  51.812  1.00  0.00     0.031 A 
ENDBRANCH  10  12
ENDBRANCH   3  10
BRANCH   1  19
HETATM   19  O1  UNL     1      25.481   4.311  49.215  1.00  0.00    -0.353 OA
HETATM   20  C1  UNL     1      26.624   3.647  49.715  1.00  0.00     0.210 C 
ENDBRANCH   1  19
BRANCH   9  21
HETATM   21  O2  UNL     1      24.055   5.538  51.554  1.00  0.00    -0.352 OA
HETATM   22  C16 UNL     1      24.073   6.904  51.116  1.00  0.00     0.210 C 
ENDBRANCH   9  21
TORSDOF 4
ENDMDL
