ROOT
HETATM    1  C1  UNL     1      21.354   0.284  51.614  1.00  0.00     0.065 C 
HETATM    2  C2  UNL     1      22.063  -0.147  52.642  1.00  0.00     0.038 C 
HETATM    3  C3  UNL     1      23.448   0.356  52.634  1.00  0.00     0.055 C 
HETATM    4  C4  UNL     1      24.613   0.088  53.224  1.00  0.00     0.048 C 
HETATM    5  C5  UNL     1      25.097  -0.875  54.207  1.00  0.00     0.212 C 
HETATM    6  C6  UNL     1      24.071  -1.174  55.234  1.00  0.00     0.129 C 
HETATM    7  N1  UNL     1      22.828  -1.417  55.470  1.00  0.00    -0.255 NA
HETATM    8  C7  UNL     1      21.625  -1.531  54.682  1.00  0.00     0.232 C 
HETATM    9  N2  UNL     1      21.365  -0.993  53.538  1.00  0.00    -0.246 NA
HETATM   10  O1  UNL     1      26.279  -0.521  54.829  1.00  0.00    -0.369 OA
HETATM   11  C8  UNL     1      26.542   0.837  54.795  1.00  0.00     0.225 C 
HETATM   12  C9  UNL     1      26.665   1.279  53.359  1.00  0.00     0.026 C 
HETATM   13  C10 UNL     1      27.747   1.765  52.784  1.00  0.00     0.040 C 
HETATM   14  N3  UNL     1      25.439   1.109  52.599  1.00  0.00    -0.348 N 
ENDROOT
BRANCH  14  15
HETATM   15  C11 UNL     1      25.173   1.882  51.439  1.00  0.00     0.159 C 
BRANCH  15  16
HETATM   16  C12 UNL     1      24.835   3.314  51.589  1.00  0.00     0.289 C 
BRANCH  16  17
HETATM   17  N4  UNL     1      25.715   4.269  50.954  1.00  0.00     0.087 N 
HETATM   18  H15 UNL     1      25.197   5.140  50.669  1.00  0.00     0.316 HD
BRANCH  17  19
HETATM   19  C13 UNL     1      26.184   3.742  49.655  1.00  0.00     0.295 C 
BRANCH  19  20
HETATM   20  C14 UNL     1      26.877   4.857  48.938  1.00  0.00     0.197 C 
BRANCH  20  21
HETATM   21  O2  UNL     1      28.221   4.591  48.739  1.00  0.00    -0.389 OA
BRANCH  21  22
HETATM   22  C15 UNL     1      28.904   5.629  48.126  1.00  0.00     0.178 C 
BRANCH  22  23
HETATM   23  C16 UNL     1      28.071   6.893  48.004  1.00  0.00     0.111 C 
HETATM   24 BR1  UNL     1      29.166   8.363  47.370  1.00  0.00    -0.094 Br
ENDBRANCH  22  23
ENDBRANCH  21  22
ENDBRANCH  20  21
ENDBRANCH  19  20
ENDBRANCH  17  19
ENDBRANCH  16  17
ENDBRANCH  15  16
ENDBRANCH  14  15
TORSDOF 8
ENDMDL
