ROOT
HETATM    1  C8  UNL     1      23.030   0.513  52.607  1.00  0.00    -0.041 C 
HETATM    2  C9  UNL     1      23.759   1.138  51.688  1.00  0.00     0.027 C 
HETATM    3  C10 UNL     1      23.957   2.238  50.734  1.00  0.00     0.116 C 
HETATM    4  N1  UNL     1      23.212   3.222  50.451  1.00  0.00    -0.241 NA
HETATM    5  C11 UNL     1      23.557   4.248  49.461  1.00  0.00     0.317 A 
HETATM    6  N2  UNL     1      22.693   3.497  48.671  1.00  0.00    -0.240 N 
HETATM    7  C12 UNL     1      21.468   3.402  49.453  1.00  0.00     0.127 A 
HETATM    8  C13 UNL     1      21.571   4.090  50.732  1.00  0.00     0.008 A 
HETATM    9  C14 UNL     1      22.586   4.852  51.449  1.00  0.00     0.129 A 
HETATM   10  N4  UNL     1      23.808   4.938  50.651  1.00  0.00    -0.211 NA
HETATM   11  C15 UNL     1      20.296   4.037  51.528  1.00  0.00     0.071 C 
HETATM   12  C16 UNL     1      20.171   2.931  52.444  1.00  0.00    -0.021 C 
HETATM   13  C17 UNL     1      20.769   1.872  52.906  1.00  0.00     0.010 C 
HETATM   14  C18 UNL     1      21.698   0.797  53.192  1.00  0.00    -0.008 C 
HETATM   15  C19 UNL     1      21.310  -0.114  54.114  1.00  0.00     0.143 C 
ENDROOT
BRANCH   1  16
HETATM   16  C7  UNL     1      23.719  -0.727  53.125  1.00  0.00     0.078 C 
BRANCH  16  17
HETATM   17  C6  UNL     1      25.165  -0.597  53.268  1.00  0.00    -0.054 A 
HETATM   18  C5  UNL     1      25.387   0.035  54.503  1.00  0.00     0.010 A 
HETATM   19  C4  UNL     1      26.682   0.337  54.952  1.00  0.00     0.037 A 
HETATM   20  C3  UNL     1      27.792   0.008  54.167  1.00  0.00     0.068 A 
HETATM   21  C21 UNL     1      27.576  -0.608  52.965  1.00  0.00     0.037 A 
HETATM   22  C20 UNL     1      26.298  -0.894  52.545  1.00  0.00     0.010 A 
BRANCH  20  23
HETATM   23  O1  UNL     1      29.097   0.276  54.549  1.00  0.00    -0.352 OA
BRANCH  23  24
HETATM   24  C2  UNL     1      29.570   1.583  54.731  1.00  0.00     0.171 C 
HETATM   25  C1  UNL     1      28.948   2.488  53.685  1.00  0.00     0.034 C 
ENDBRANCH  23  24
ENDBRANCH  20  23
ENDBRANCH  16  17
ENDBRANCH   1  16
BRANCH  15  26
HETATM   26  O2  UNL     1      20.085   0.031  54.744  1.00  0.00    -0.372 OA
HETATM   27  H20 UNL     1      19.445   0.816  54.640  1.00  0.00     0.216 HD
ENDBRANCH  15  26
BRANCH   9  28
HETATM   28  N3  UNL     1      22.342   5.392  52.721  1.00  0.00    -0.384 N 
HETATM   29  H13 UNL     1      22.253   6.428  52.882  1.00  0.00     0.157 HD
HETATM   30  H14 UNL     1      22.299   4.506  53.303  1.00  0.00     0.157 HD
ENDBRANCH   9  28
TORSDOF 6
ENDMDL
