ROOT
HETATM    1  C4  UNL     1      26.336  -0.373  52.777  1.00  0.00     0.108 A 
HETATM    2  C5  UNL     1      25.369  -0.982  53.556  1.00  0.00     0.072 A 
HETATM    3  C6  UNL     1      24.061  -0.533  53.596  1.00  0.00     0.071 A 
HETATM    4  C7  UNL     1      23.686   0.575  52.827  1.00  0.00     0.022 A 
HETATM    5  C8  UNL     1      24.652   1.191  52.042  1.00  0.00     0.114 A 
HETATM    6  C9  UNL     1      25.957   0.733  52.011  1.00  0.00     0.136 A 
HETATM    7  O2  UNL     1      26.795   1.460  51.176  1.00  0.00    -0.344 OA
HETATM    8  C10 UNL     1      26.680   2.874  51.040  1.00  0.00     0.202 C 
HETATM    9  C11 UNL     1      25.264   3.333  50.965  1.00  0.00     0.202 C 
HETATM   10  O3  UNL     1      24.332   2.305  51.251  1.00  0.00    -0.345 OA
HETATM   11  C12 UNL     1      22.233   0.846  53.053  1.00  0.00     0.116 A 
HETATM   12  C18 UNL     1      21.895  -0.235  54.018  1.00  0.00     0.112 A 
HETATM   13  N2  UNL     1      22.906  -0.995  54.318  1.00  0.00    -0.234 NA
ENDROOT
BRANCH  11  14
HETATM   14  C13 UNL     1      21.421   0.604  51.818  1.00  0.00    -0.009 C 
HETATM   15  C14 UNL     1      20.831   1.643  51.236  1.00  0.00     0.005 C 
BRANCH  15  16
HETATM   16  P1  UNL     1      19.796   1.629  49.738  1.00  0.00    -0.081 P 
HETATM   17  H14 UNL     1      18.616   2.459  49.988  1.00  0.00     0.066 HD
BRANCH  16  18
HETATM   18  C15 UNL     1      20.718   2.258  48.277  1.00  0.00    -0.077 C 
HETATM   19  C16 UNL     1      21.849   1.549  48.287  1.00  0.00     0.039 C 
HETATM   20  C17 UNL     1      20.583   3.241  47.181  1.00  0.00     0.044 C 
ENDBRANCH  16  18
ENDBRANCH  15  16
ENDBRANCH  11  14
BRANCH  12  21
HETATM   21  N1  UNL     1      20.583  -0.411  54.558  1.00  0.00    -0.382 N 
HETATM   22  C19 UNL     1      19.672  -1.399  53.984  1.00  0.00     0.147 C 
HETATM   23  H20 UNL     1      20.219   0.133  55.357  1.00  0.00     0.160 HD
ENDBRANCH  12  21
BRANCH   1  24
HETATM   24  O1  UNL     1      27.653  -0.767  52.691  1.00  0.00    -0.334 OA
BRANCH  24  25
HETATM   25  C2  UNL     1      28.581  -0.401  53.661  1.00  0.00     0.095 C 
HETATM   26  C1  UNL     1      29.834  -0.801  53.565  1.00  0.00     0.044 C 
HETATM   27  C3  UNL     1      28.395   0.426  54.881  1.00  0.00     0.050 C 
ENDBRANCH  24  25
ENDBRANCH   1  24
TORSDOF 6
ENDMDL
