ROOT
HETATM    1  C3  UNL     1      21.450  -0.614  53.405  1.00  0.00     0.177 C 
HETATM    2  C4  UNL     1      21.820  -0.998  54.814  1.00  0.00     0.210 C 
HETATM    3  O2  UNL     1      23.203  -1.299  54.824  1.00  0.00    -0.346 OA
HETATM    4  C5  UNL     1      24.016  -0.379  54.145  1.00  0.00     0.104 A 
HETATM    5  C6  UNL     1      25.394  -0.453  54.376  1.00  0.00     0.072 A 
HETATM    6  C7  UNL     1      26.182   0.466  53.695  1.00  0.00     0.075 A 
HETATM    7  N1  UNL     1      27.499   0.367  53.941  1.00  0.00    -0.241 NA
HETATM    8  C8  UNL     1      28.365   1.220  53.329  1.00  0.00     0.236 A 
HETATM    9  N2  UNL     1      27.862   2.146  52.487  1.00  0.00    -0.224 NA
HETATM   10  C9  UNL     1      26.571   2.293  52.204  1.00  0.00     0.141 A 
HETATM   11  C16 UNL     1      25.698   1.424  52.829  1.00  0.00     0.042 A 
HETATM   12  C17 UNL     1      24.336   1.474  52.623  1.00  0.00     0.057 A 
HETATM   13  C18 UNL     1      23.516   0.573  53.283  1.00  0.00     0.103 A 
HETATM   14  O3  UNL     1      22.139   0.593  53.101  1.00  0.00    -0.339 OA
ENDROOT
BRANCH  10  15
HETATM   15  N3  UNL     1      26.076   3.290  51.302  1.00  0.00    -0.350 N 
HETATM   16  H11 UNL     1      25.284   3.982  51.459  1.00  0.00     0.166 HD
BRANCH  15  17
HETATM   17  C10 UNL     1      26.630   3.486  49.981  1.00  0.00     0.086 C 
HETATM   18  C11 UNL     1      26.070   4.437  49.214  1.00  0.00    -0.004 C 
BRANCH  18  19
HETATM   19  C12 UNL     1      25.095   4.829  50.191  1.00  0.00     0.045 C 
HETATM   20  C13 UNL     1      24.088   5.679  50.162  1.00  0.00    -0.014 C 
BRANCH  20  21
HETATM   21  C14 UNL     1      23.758   5.347  51.571  1.00  0.00     0.042 C 
HETATM   22  C15 UNL     1      22.820   4.761  52.308  1.00  0.00     0.146 C 
HETATM   23  I1  UNL     1      21.073   3.907  51.537  1.00  0.00    -0.194 I 
ENDBRANCH  20  21
ENDBRANCH  18  19
ENDBRANCH  15  17
ENDBRANCH  10  15
BRANCH   1  24
HETATM   24  C2  UNL     1      19.955  -0.427  53.248  1.00  0.00     0.201 C 
BRANCH  24  25
HETATM   25  O1  UNL     1      19.652   0.266  52.086  1.00  0.00    -0.393 OA
HETATM   26  C1  UNL     1      18.415  -0.185  51.622  1.00  0.00     0.201 C 
ENDBRANCH  24  25
ENDBRANCH   1  24
TORSDOF 6
ENDMDL
