ROOT
HETATM    1  C3  UNL     1      26.742   0.864  54.117  1.00  0.00    -0.052 C 
HETATM    2  C4  UNL     1      26.151   1.959  53.674  1.00  0.00    -0.002 C 
HETATM    3  C5  UNL     1      24.891   2.082  52.890  1.00  0.00     0.152 C 
HETATM    4  N1  UNL     1      24.200   0.783  52.840  1.00  0.00    -0.359 N 
HETATM    5  C14 UNL     1      25.193  -0.267  52.559  1.00  0.00     0.161 C 
HETATM    6  C15 UNL     1      26.048  -0.409  53.781  1.00  0.00     0.171 C 
ENDROOT
BRANCH   4   7
HETATM    7  C6  UNL     1      22.821   0.480  53.019  1.00  0.00     0.140 A 
HETATM    8  N2  UNL     1      22.566   0.056  54.290  1.00  0.00    -0.224 NA
HETATM    9  C7  UNL     1      21.301  -0.283  54.652  1.00  0.00     0.236 A 
HETATM   10  N3  UNL     1      20.303  -0.200  53.755  1.00  0.00    -0.241 NA
HETATM   11  C8  UNL     1      20.505   0.215  52.488  1.00  0.00     0.072 A 
HETATM   12  C9  UNL     1      19.541   0.330  51.511  1.00  0.00     0.034 A 
HETATM   13  C13 UNL     1      21.785   0.561  52.112  1.00  0.00     0.040 A 
HETATM   14  C10 UNL     1      19.876   0.769  50.242  1.00  0.00     0.026 A 
HETATM   15  C11 UNL     1      21.182   1.113  49.892  1.00  0.00     0.035 A 
HETATM   16 CL1  UNL     1      21.569   1.665  48.277  1.00  0.00    -0.084 Cl
HETATM   17  C12 UNL     1      22.163   1.003  50.862  1.00  0.00     0.041 A 
ENDBRANCH   4   7
BRANCH   6  18
HETATM   18  O1  UNL     1      26.940  -1.442  53.736  1.00  0.00    -0.356 OA
BRANCH  18  19
HETATM   19  C16 UNL     1      27.006  -2.164  52.578  1.00  0.00     0.338 C 
BRANCH  19  20
HETATM   20  O2  UNL     1      28.107  -3.039  52.725  1.00  0.00    -0.372 OA
HETATM   21  C17 UNL     1      29.213  -2.376  53.234  1.00  0.00     0.204 C 
ENDBRANCH  19  20
ENDBRANCH  18  19
ENDBRANCH   6  18
BRANCH   1  22
HETATM   22  C2  UNL     1      27.993   0.792  54.893  1.00  0.00     0.032 C 
HETATM   23  C1  UNL     1      29.180   1.331  54.170  1.00  0.00     0.010 C 
ENDBRANCH   1  22
TORSDOF 5
ENDMDL
