ROOT
HETATM    1  N1  UNL     1      20.849   5.139  49.173  1.00  0.00    -0.197 N 
HETATM    2  C1  UNL     1      20.947   4.126  50.075  1.00  0.00     0.038 C 
HETATM    3  C2  UNL     1      21.050   3.277  50.837  1.00  0.00    -0.051 C 
HETATM    4  C3  UNL     1      21.202   2.226  51.786  1.00  0.00     0.364 C 
HETATM    5  N2  UNL     1      19.981   2.048  52.542  1.00  0.00     0.094 N 
HETATM    6  C4  UNL     1      20.198   1.041  53.543  1.00  0.00     0.270 C 
HETATM    7  C5  UNL     1      20.362  -0.363  53.013  1.00  0.00     0.030 C 
HETATM    8  C6  UNL     1      20.655  -1.341  54.130  1.00  0.00     0.002 C 
HETATM    9  C7  UNL     1      21.823  -1.032  54.952  1.00  0.00     0.000 C 
HETATM   10  C8  UNL     1      23.202  -1.071  54.448  1.00  0.00     0.000 C 
HETATM   11  C9  UNL     1      23.634  -0.257  53.311  1.00  0.00     0.004 C 
HETATM   12  C10 UNL     1      25.153  -0.417  53.103  1.00  0.00     0.027 C 
HETATM   13  C11 UNL     1      25.931   0.117  54.219  1.00  0.00    -0.027 C 
HETATM   14  C12 UNL     1      26.852   1.098  54.324  1.00  0.00    -0.003 C 
HETATM   15  C13 UNL     1      27.503   2.063  53.450  1.00  0.00     0.019 C 
HETATM   16  C14 UNL     1      27.490   2.421  52.174  1.00  0.00     0.118 C 
HETATM   17  N3  UNL     1      26.821   2.040  50.990  1.00  0.00    -0.257 NA
HETATM   18  C15 UNL     1      26.365   2.894  50.153  1.00  0.00     0.192 C 
HETATM   19  N4  UNL     1      26.357   4.323  50.104  1.00  0.00    -0.398 NA
HETATM   20  C16 UNL     1      25.228   4.924  49.996  1.00  0.00     0.345 C 
HETATM   21  C17 UNL     1      24.253   5.989  49.883  1.00  0.00     0.115 C 
HETATM   22  N5  UNL     1      23.140   5.389  49.816  1.00  0.00    -0.281 NA
HETATM   23  C18 UNL     1      21.857   6.007  49.694  1.00  0.00     0.314 C 
HETATM   24  H4  UNL     1      19.709   2.917  53.053  1.00  0.00     0.317 HD
ENDROOT
BRANCH   1  25
HETATM   25  O1  UNL     1      19.896   4.311  48.688  1.00  0.00    -0.278 OA
HETATM   26  H1  UNL     1      19.349   3.920  49.430  1.00  0.00     0.245 HD
ENDBRANCH   1  25
TORSDOF 1
ENDMDL
