ROOT
HETATM    1  O1  UNL     1      20.006   3.578  49.972  1.00  0.00    -0.271 OA
HETATM    2  C1  UNL     1      20.664   3.228  51.012  1.00  0.00     0.244 C 
HETATM    3  N1  UNL     1      21.966   3.183  50.493  1.00  0.00    -0.342 N 
HETATM    4  C9  UNL     1      21.994   3.534  49.097  1.00  0.00     0.155 C 
HETATM    5  C10 UNL     1      23.377   3.901  48.723  1.00  0.00     0.025 C 
HETATM    6  C11 UNL     1      24.482   3.797  49.435  1.00  0.00     0.067 A 
HETATM    7  N2  UNL     1      25.730   4.210  48.892  1.00  0.00    -0.244 NA
HETATM    8  C12 UNL     1      26.830   4.118  49.571  1.00  0.00     0.209 A 
HETATM    9  N3  UNL     1      26.743   3.583  50.892  1.00  0.00    -0.336 N 
HETATM   10  C13 UNL     1      25.498   3.161  51.460  1.00  0.00     0.117 A 
HETATM   11  C20 UNL     1      24.373   3.249  50.780  1.00  0.00     0.032 A 
HETATM   12  C21 UNL     1      23.073   2.817  51.354  1.00  0.00     0.171 C 
HETATM   13  H12 UNL     1      27.673   3.544  51.368  1.00  0.00     0.168 HD
ENDROOT
BRANCH   2  14
HETATM   14  C2  UNL     1      20.162   2.950  52.378  1.00  0.00     0.278 C 
BRANCH  14  15
HETATM   15  O2  UNL     1      19.886   1.582  52.498  1.00  0.00    -0.342 OA
BRANCH  15  16
HETATM   16  C3  UNL     1      20.632   0.683  53.234  1.00  0.00     0.069 A 
HETATM   17  C4  UNL     1      20.766   0.472  54.574  1.00  0.00     0.037 A 
HETATM   18  C5  UNL     1      21.577  -0.490  55.087  1.00  0.00     0.003 A 
HETATM   19  C6  UNL     1      22.307  -1.299  54.241  1.00  0.00     0.000 A 
HETATM   20  C7  UNL     1      22.206  -1.127  52.876  1.00  0.00     0.003 A 
HETATM   21  C8  UNL     1      21.368  -0.134  52.367  1.00  0.00     0.037 A 
ENDBRANCH  15  16
ENDBRANCH  14  15
ENDBRANCH   2  14
BRANCH  10  22
HETATM   22  N4  UNL     1      25.509   2.643  52.783  1.00  0.00    -0.342 N 
HETATM   23  H13 UNL     1      25.165   2.951  53.716  1.00  0.00     0.167 HD
BRANCH  22  24
HETATM   24  C14 UNL     1      26.154   1.379  52.864  1.00  0.00     0.034 A 
HETATM   25  C15 UNL     1      25.369   0.244  52.639  1.00  0.00     0.029 A 
HETATM   26  C16 UNL     1      25.952  -1.018  52.705  1.00  0.00     0.004 A 
HETATM   27  C17 UNL     1      27.305  -1.156  52.991  1.00  0.00     0.019 A 
HETATM   28  C18 UNL     1      28.088  -0.043  53.215  1.00  0.00     0.013 A 
HETATM   29 BR1  UNL     1      29.939  -0.208  53.609  1.00  0.00    -0.051 Br
HETATM   30  C19 UNL     1      27.493   1.199  53.145  1.00  0.00     0.048 A 
ENDBRANCH  22  24
ENDBRANCH  10  22
TORSDOF 5
ENDMDL
