ROOT
HETATM    1  C2  UNL     1      24.494   4.540  50.542  1.00  0.00     0.102 C 
HETATM    2  C3  UNL     1      25.702   4.038  50.109  1.00  0.00     0.059 C 
HETATM    3  C4  UNL     1      26.546   2.979  50.007  1.00  0.00     0.121 C 
HETATM    4  N1  UNL     1      26.687   2.585  51.289  1.00  0.00    -0.254 NA
HETATM    5  C5  UNL     1      26.009   1.460  51.668  1.00  0.00     0.234 C 
HETATM    6  N2  UNL     1      24.763   1.901  51.678  1.00  0.00    -0.224 NA
HETATM    7  C6  UNL     1      23.761   1.430  52.455  1.00  0.00     0.132 C 
HETATM    8  C7  UNL     1      22.813   2.474  52.234  1.00  0.00     0.004 C 
HETATM    9  C8  UNL     1      23.019   3.816  52.355  1.00  0.00     0.051 C 
HETATM   10  C9  UNL     1      23.788   4.737  51.699  1.00  0.00     0.099 C 
HETATM   11  C10 UNL     1      21.700   1.546  51.879  1.00  0.00     0.017 A 
HETATM   12  C11 UNL     1      22.159   1.349  50.603  1.00  0.00    -0.030 A 
HETATM   13  C12 UNL     1      21.697   0.228  51.238  1.00  0.00     0.036 A 
HETATM   14  C13 UNL     1      21.221   0.351  52.519  1.00  0.00    -0.001 A 
HETATM   15  C14 UNL     1      20.790   0.677  53.775  1.00  0.00    -0.034 A 
HETATM   16  C15 UNL     1      21.259   1.803  53.145  1.00  0.00     0.035 A 
HETATM   17  C16 UNL     1      21.863  -0.948  52.955  1.00  0.00     0.024 A 
HETATM   18  C17 UNL     1      22.135  -1.569  54.208  1.00  0.00     0.033 A 
HETATM   19  C18 UNL     1      22.935  -0.406  54.027  1.00  0.00     0.088 A 
HETATM   20  N3  UNL     1      23.889   0.160  53.163  1.00  0.00    -0.369 N 
HETATM   21  H17 UNL     1      24.789  -0.308  52.961  1.00  0.00     0.161 HD
ENDROOT
BRANCH   1  22
HETATM   22  O1  UNL     1      23.558   5.061  49.628  1.00  0.00    -0.353 OA
HETATM   23  C1  UNL     1      23.106   4.287  48.532  1.00  0.00     0.210 C 
ENDBRANCH   1  22
BRANCH  10  24
HETATM   24  O2  UNL     1      23.839   5.988  52.296  1.00  0.00    -0.358 OA
HETATM   25  H8  UNL     1      23.472   6.794  51.839  1.00  0.00     0.217 HD
ENDBRANCH  10  24
TORSDOF 2
ENDMDL
