ROOT
HETATM    1  C2  UNL     1      20.353  -0.573  53.323  1.00  0.00     0.095 A 
HETATM    2  C3  UNL     1      21.001  -1.172  54.289  1.00  0.00     0.072 A 
HETATM    3  C4  UNL     1      22.425  -0.986  54.521  1.00  0.00     0.075 A 
HETATM    4  N1  UNL     1      22.884  -1.696  55.566  1.00  0.00    -0.241 NA
HETATM    5  C5  UNL     1      24.178  -1.650  55.932  1.00  0.00     0.236 A 
HETATM    6  N2  UNL     1      25.019  -0.855  55.208  1.00  0.00    -0.224 NA
HETATM    7  C6  UNL     1      24.555  -0.143  54.159  1.00  0.00     0.140 A 
HETATM    8  C14 UNL     1      23.232  -0.175  53.767  1.00  0.00     0.041 A 
HETATM    9  C15 UNL     1      22.734   0.583  52.650  1.00  0.00     0.050 A 
HETATM   10  P1  UNL     1      21.180   0.537  52.198  1.00  0.00     0.043 P 
HETATM   11  H16 UNL     1      21.030   0.152  50.859  1.00  0.00     0.092 HD
ENDROOT
BRANCH   7  12
HETATM   12  N3  UNL     1      25.499   0.664  53.454  1.00  0.00    -0.358 N 
HETATM   13  C7  UNL     1      25.799   2.094  53.569  1.00  0.00     0.152 C 
BRANCH  12  14
HETATM   14  C8  UNL     1      26.356   0.068  52.429  1.00  0.00     0.132 A 
HETATM   15  C9  UNL     1      26.212  -1.402  52.492  1.00  0.00     0.003 A 
HETATM   16  C10 UNL     1      27.355  -1.991  52.870  1.00  0.00     0.007 A 
HETATM   17  C11 UNL     1      28.333  -0.910  53.079  1.00  0.00    -0.032 A 
HETATM   18  C13 UNL     1      27.784   0.272  52.834  1.00  0.00     0.012 A 
BRANCH  17  19
HETATM   19  C12 UNL     1      29.737  -1.209  53.513  1.00  0.00     0.260 C 
HETATM   20  F1  UNL     1      30.448  -0.049  53.647  1.00  0.00    -0.251 F 
ENDBRANCH  17  19
ENDBRANCH  12  14
ENDBRANCH   7  12
BRANCH  10  21
HETATM   21  O2  UNL     1      20.578   2.120  52.446  1.00  0.00    -0.367 OA
HETATM   22  C16 UNL     1      21.599   3.047  52.194  1.00  0.00     0.207 C 
ENDBRANCH  10  21
BRANCH   1  23
HETATM   23  O1  UNL     1      19.035  -0.627  52.960  1.00  0.00    -0.353 OA
HETATM   24  C1  UNL     1      18.102  -1.607  53.289  1.00  0.00     0.210 C 
ENDBRANCH   1  23
TORSDOF 5
ENDMDL
