ROOT
HETATM    1  C3  UNL     1      26.039   4.820  49.136  1.00  0.00    -0.033 C 
HETATM    2  C4  UNL     1      24.773   5.233  48.999  1.00  0.00     0.028 C 
HETATM    3  C5  UNL     1      23.551   4.565  49.458  1.00  0.00     0.116 C 
HETATM    4  N1  UNL     1      23.448   3.675  50.394  1.00  0.00    -0.244 NA
HETATM    5  C6  UNL     1      24.390   3.053  51.266  1.00  0.00     0.282 C 
HETATM    6  F1  UNL     1      24.501   3.742  52.457  1.00  0.00    -0.198 F 
HETATM    7  C13 UNL     1      25.733   2.880  50.678  1.00  0.00     0.055 C 
HETATM    8  C14 UNL     1      26.465   3.572  49.797  1.00  0.00     0.011 C 
ENDROOT
BRANCH   5   9
HETATM    9  S1  UNL     1      23.718   1.400  51.689  1.00  0.00     0.018 SA
BRANCH   9  10
HETATM   10  N2  UNL     1      24.333   0.896  53.277  1.00  0.00    -0.326 N 
HETATM   11  H8  UNL     1      23.833   0.936  54.192  1.00  0.00     0.174 HD
BRANCH  10  12
HETATM   12  C7  UNL     1      25.658   0.380  53.301  1.00  0.00     0.039 A 
HETATM   13  C8  UNL     1      25.978  -0.880  52.838  1.00  0.00     0.030 A 
HETATM   14  C9  UNL     1      27.223  -1.466  52.820  1.00  0.00     0.004 A 
HETATM   15  C10 UNL     1      28.275  -0.708  53.324  1.00  0.00     0.024 A 
HETATM   16  C11 UNL     1      28.028   0.557  53.803  1.00  0.00     0.036 A 
HETATM   17 CL1  UNL     1      29.331   1.548  54.449  1.00  0.00    -0.084 Cl
HETATM   18  C12 UNL     1      26.746   1.086  53.790  1.00  0.00     0.053 A 
ENDBRANCH  10  12
ENDBRANCH   9  10
ENDBRANCH   5   9
BRANCH   1  19
HETATM   19  C2  UNL     1      27.174   5.625  48.608  1.00  0.00     0.205 C 
BRANCH  19  20
HETATM   20  O1  UNL     1      28.310   4.788  48.584  1.00  0.00    -0.391 OA
HETATM   21  C1  UNL     1      29.416   5.580  48.204  1.00  0.00     0.201 C 
ENDBRANCH  19  20
ENDBRANCH   1  19
TORSDOF 5
ENDMDL
