ROOT
HETATM    1  C1  UNL     1      26.222   2.795  51.080  1.00  0.00     0.039 C 
HETATM    2  C2  UNL     1      25.213   2.018  51.438  1.00  0.00     0.010 C 
ENDROOT
BRANCH   2   3
HETATM    3  C3  UNL     1      23.881   2.048  50.727  1.00  0.00     0.086 C 
HETATM    4  C4  UNL     1      23.851   3.305  49.849  1.00  0.00     0.135 C 
HETATM    5  N1  UNL     1      22.681   4.174  50.135  1.00  0.00    -0.387 N 
HETATM    6  C5  UNL     1      22.046   3.871  51.371  1.00  0.00     0.057 C 
HETATM    7  H6  UNL     1      22.011   4.958  49.879  1.00  0.00     0.159 HD
HETATM    8  C6  UNL     1      23.047   3.341  52.190  1.00  0.00     0.012 C 
HETATM    9  C10 UNL     1      20.657   3.915  51.895  1.00  0.00     0.146 C 
HETATM   10  C7  UNL     1      22.869   2.030  51.783  1.00  0.00    -0.032 C 
HETATM   11  C8  UNL     1      21.847   1.170  52.375  1.00  0.00     0.028 C 
HETATM   12  C9  UNL     1      20.637   1.655  52.795  1.00  0.00     0.117 C 
HETATM   13  N2  UNL     1      20.224   3.073  52.843  1.00  0.00    -0.271 NA
ENDBRANCH   2   3
BRANCH   2  14
HETATM   14  N3  UNL     1      25.564   1.195  52.537  1.00  0.00    -0.354 N 
HETATM   15  C11 UNL     1      25.634  -0.254  52.286  1.00  0.00     0.153 C 
HETATM   16  C12 UNL     1      27.080  -0.630  52.434  1.00  0.00     0.005 C 
HETATM   17  C13 UNL     1      27.552  -0.192  53.571  1.00  0.00     0.027 C 
HETATM   18  C15 UNL     1      26.768   0.571  54.576  1.00  0.00     0.096 C 
HETATM   19  C16 UNL     1      25.871   1.580  53.890  1.00  0.00     0.224 C 
BRANCH  17  20
HETATM   20  C14 UNL     1      28.987  -0.489  53.867  1.00  0.00     0.413 C 
HETATM   21  F1  UNL     1      29.242  -1.806  53.622  1.00  0.00    -0.166 F 
HETATM   22  F2  UNL     1      29.174  -0.278  55.228  1.00  0.00    -0.166 F 
HETATM   23  F3  UNL     1      29.845   0.338  53.210  1.00  0.00    -0.166 F 
ENDBRANCH  17  20
BRANCH  19  24
HETATM   24  O1  UNL     1      26.599   2.789  53.922  1.00  0.00    -0.376 OA
HETATM   25  H16 UNL     1      26.400   3.330  53.124  1.00  0.00     0.212 HD
ENDBRANCH  19  24
ENDBRANCH   2  14
TORSDOF 4
ENDMDL
