ROOT
HETATM    1  C8  UNL     1      26.014   1.953  52.282  1.00  0.00     0.142 C 
HETATM    2  N2  UNL     1      25.636   2.555  51.221  1.00  0.00    -0.224 NA
ENDROOT
BRANCH   1   3
HETATM    3  C7  UNL     1      27.222   1.339  52.788  1.00  0.00     0.019 A 
HETATM    4  C2  UNL     1      27.412  -0.091  52.728  1.00  0.00    -0.032 A 
HETATM    5  C1  UNL     1      26.545  -0.933  52.232  1.00  0.00     0.024 C 
HETATM    6  C3  UNL     1      28.647  -0.650  53.252  1.00  0.00     0.010 A 
HETATM    7  C4  UNL     1      29.502   0.229  53.748  1.00  0.00     0.011 A 
HETATM    8  C5  UNL     1      29.379   1.700  53.845  1.00  0.00     0.192 A 
HETATM    9  C6  UNL     1      28.107   2.166  53.292  1.00  0.00     0.027 A 
BRANCH   8  10
HETATM   10  O1  UNL     1      29.415   2.060  55.210  1.00  0.00    -0.295 OA
BRANCH  10  11
HETATM   11  N1  UNL     1      30.533   2.777  55.466  1.00  0.00    -0.214 NA
HETATM   12  H6  UNL     1      31.375   2.274  55.120  1.00  0.00     0.150 HD
HETATM   13  H7  UNL     1      30.619   2.790  56.517  1.00  0.00     0.150 HD
ENDBRANCH  10  11
ENDBRANCH   8  10
ENDBRANCH   1   3
BRANCH   1  14
HETATM   14  N4  UNL     1      24.693   2.157  52.756  1.00  0.00    -0.335 N 
HETATM   15  C10 UNL     1      24.172   3.486  53.125  1.00  0.00     0.158 C 
BRANCH  14  16
HETATM   16  C11 UNL     1      23.756   1.067  52.910  1.00  0.00     0.035 A 
HETATM   17  C12 UNL     1      22.738   0.939  51.991  1.00  0.00     0.029 A 
HETATM   18  C13 UNL     1      21.877  -0.142  52.214  1.00  0.00     0.002 A 
HETATM   19  C14 UNL     1      22.032  -1.018  53.270  1.00  0.00     0.000 A 
HETATM   20  C15 UNL     1      23.073  -0.842  54.162  1.00  0.00     0.002 A 
HETATM   21  C16 UNL     1      23.946   0.215  53.978  1.00  0.00     0.029 A 
ENDBRANCH  14  16
ENDBRANCH   1  14
BRANCH   2  22
HETATM   22  C9  UNL     1      26.400   2.831  50.071  1.00  0.00     0.225 C 
HETATM   23  N3  UNL     1      27.022   3.945  50.265  1.00  0.00    -0.293 NA
HETATM   24  H10 UNL     1      26.938   4.501  51.134  1.00  0.00     0.187 HD
ENDBRANCH   2  22
TORSDOF 6
ENDMDL
