ROOT
HETATM    1  C7  UNL     1      27.070   0.087  52.842  1.00  0.00     0.217 C 
HETATM    2  C8  UNL     1      27.253  -1.366  52.853  1.00  0.00     0.078 C 
HETATM    3  N1  UNL     1      27.409  -2.508  52.878  1.00  0.00    -0.196 NA
ENDROOT
BRANCH   1   4
HETATM    4  C6  UNL     1      25.629   0.382  52.740  1.00  0.00    -0.030 A 
HETATM    5  C5  UNL     1      24.755  -0.240  53.600  1.00  0.00     0.019 A 
HETATM    6  C4  UNL     1      23.396  -0.024  53.577  1.00  0.00    -0.020 A 
HETATM    7  C16 UNL     1      22.931   0.865  52.631  1.00  0.00     0.079 A 
HETATM    8  C11 UNL     1      23.724   1.532  51.732  1.00  0.00    -0.016 A 
HETATM    9  C10 UNL     1      25.071   1.261  51.821  1.00  0.00     0.019 A 
BRANCH   6  10
HETATM   10  C2  UNL     1      22.544  -0.748  54.548  1.00  0.00     0.013 C 
HETATM   11  C1  UNL     1      23.419  -1.333  55.631  1.00  0.00     0.015 C 
HETATM   12  C3  UNL     1      21.689  -1.815  53.949  1.00  0.00     0.015 C 
ENDBRANCH   6  10
BRANCH   7  13
HETATM   13  O2  UNL     1      21.563   1.087  52.601  1.00  0.00    -0.360 OA
HETATM   14  H22 UNL     1      21.167   2.029  52.712  1.00  0.00     0.217 HD
ENDBRANCH   7  13
BRANCH   8  15
HETATM   15  C12 UNL     1      23.147   2.467  50.752  1.00  0.00    -0.021 C 
HETATM   16  C13 UNL     1      24.287   3.058  49.960  1.00  0.00     0.019 C 
HETATM   17  C14 UNL     1      22.476   3.590  51.525  1.00  0.00     0.019 C 
HETATM   18  C15 UNL     1      22.171   1.823  49.812  1.00  0.00     0.019 C 
ENDBRANCH   8  15
ENDBRANCH   1   4
BRANCH   1  19
HETATM   19  C9  UNL     1      27.732   0.730  53.996  1.00  0.00     0.237 C 
HETATM   20  N2  UNL     1      28.260  -0.150  54.984  1.00  0.00    -0.369 N 
HETATM   21  H10 UNL     1      28.203   0.107  56.009  1.00  0.00     0.159 HD
HETATM   22  H11 UNL     1      28.742  -1.069  55.079  1.00  0.00     0.159 HD
HETATM   23  O1  UNL     1      27.900   1.959  54.235  1.00  0.00    -0.272 OA
ENDBRANCH   1  19
TORSDOF 5
ENDMDL
