ROOT
HETATM    1  C7  UNL     1      21.950   0.752  53.018  1.00  0.00     0.091 A 
HETATM    2  C8  UNL     1      22.573   1.565  52.094  1.00  0.00     0.041 A 
HETATM    3  C9  UNL     1      23.923   1.372  51.898  1.00  0.00     0.032 A 
HETATM    4  C10 UNL     1      24.717   0.453  52.527  1.00  0.00     0.035 A 
HETATM    5  C15 UNL     1      24.038  -0.329  53.438  1.00  0.00     0.056 A 
HETATM    6  C16 UNL     1      22.692  -0.193  53.687  1.00  0.00     0.069 A 
HETATM    7 CL1  UNL     1      21.926  -1.238  54.865  1.00  0.00    -0.081 Cl
ENDROOT
BRANCH   1   8
HETATM    8  O1  UNL     1      20.588   0.895  53.264  1.00  0.00    -0.345 OA
BRANCH   8   9
HETATM    9  C6  UNL     1      19.675   0.934  52.182  1.00  0.00     0.214 C 
BRANCH   9  10
HETATM   10  C5  UNL     1      18.580  -0.055  52.315  1.00  0.00    -0.031 A 
HETATM   11  C4  UNL     1      17.449  -0.009  51.540  1.00  0.00     0.009 A 
HETATM   12  C3  UNL     1      16.407  -0.908  51.631  1.00  0.00     0.004 A 
HETATM   13  C2  UNL     1      16.531  -1.912  52.570  1.00  0.00     0.042 A 
HETATM   14  C1  UNL     1      17.635  -2.007  53.368  1.00  0.00     0.117 A 
HETATM   15  F1  UNL     1      17.817  -2.973  54.311  1.00  0.00    -0.206 F 
HETATM   16  C17 UNL     1      18.654  -1.081  53.238  1.00  0.00     0.051 A 
ENDBRANCH   9  10
ENDBRANCH   8   9
ENDBRANCH   1   8
BRANCH   4  17
HETATM   17  N1  UNL     1      26.095   0.261  52.321  1.00  0.00    -0.341 N 
HETATM   18  H8  UNL     1      26.380  -0.273  51.461  1.00  0.00     0.167 HD
BRANCH  17  19
HETATM   19  C11 UNL     1      27.164   0.704  53.141  1.00  0.00     0.130 A 
HETATM   20  C12 UNL     1      27.705   1.964  52.983  1.00  0.00     0.070 A 
HETATM   21  C13 UNL     1      28.729   2.490  53.713  1.00  0.00     0.122 A 
HETATM   22  N2  UNL     1      29.255   1.691  54.679  1.00  0.00    -0.254 NA
HETATM   23  C14 UNL     1      28.769   0.447  54.884  1.00  0.00     0.234 A 
HETATM   24  N3  UNL     1      27.775   0.028  54.125  1.00  0.00    -0.225 NA
ENDBRANCH  17  19
ENDBRANCH   4  17
TORSDOF 5
ENDMDL
