ROOT
HETATM    1  C4  UNL     1      22.481   3.080  50.337  1.00  0.00     0.174 C 
HETATM    2  C5  UNL     1      22.388   1.630  50.747  1.00  0.00    -0.028 C 
HETATM    3  C6  UNL     1      23.566   1.287  51.401  1.00  0.00     0.021 C 
HETATM    4  C7  UNL     1      23.678   0.450  52.638  1.00  0.00    -0.024 A 
HETATM    5  C8  UNL     1      25.010   0.378  53.072  1.00  0.00     0.012 A 
HETATM    6  C9  UNL     1      25.275  -0.351  54.203  1.00  0.00     0.004 A 
HETATM    7  C10 UNL     1      24.262  -0.990  54.887  1.00  0.00     0.043 A 
HETATM    8  C11 UNL     1      22.947  -0.956  54.513  1.00  0.00     0.126 A 
HETATM    9  F1  UNL     1      21.985  -1.588  55.194  1.00  0.00    -0.205 F 
HETATM   10  C12 UNL     1      22.700  -0.228  53.388  1.00  0.00     0.028 A 
HETATM   11  C13 UNL     1      21.193  -0.308  53.129  1.00  0.00     0.286 C 
HETATM   12  C14 UNL     1      20.915   0.424  51.920  1.00  0.00    -0.009 C 
HETATM   13  C15 UNL     1      21.420   0.472  50.648  1.00  0.00     0.017 C 
HETATM   14  C16 UNL     1      19.857   1.350  52.246  1.00  0.00     0.119 A 
HETATM   15  C17 UNL     1      20.815   2.234  52.406  1.00  0.00     0.070 A 
HETATM   16  C18 UNL     1      19.785   3.083  52.074  1.00  0.00     0.114 A 
HETATM   17  N3  UNL     1      18.447   3.074  51.757  1.00  0.00    -0.265 NA
HETATM   18  C19 UNL     1      17.816   1.845  51.717  1.00  0.00     0.223 A 
HETATM   19  N4  UNL     1      18.705   0.780  52.017  1.00  0.00    -0.264 NA
HETATM   20  C20 UNL     1      20.473   4.377  51.731  1.00  0.00     0.044 C 
HETATM   21  C21 UNL     1      21.581   4.034  50.988  1.00  0.00     0.071 C 
ENDROOT
BRANCH   1  22
HETATM   22  N1  UNL     1      23.888   3.496  50.529  1.00  0.00    -0.343 N 
HETATM   23  C3  UNL     1      24.590   4.217  49.487  1.00  0.00     0.241 C 
HETATM   24  O1  UNL     1      23.897   4.440  48.446  1.00  0.00    -0.269 OA
HETATM   25  H4  UNL     1      24.225   3.192  51.469  1.00  0.00     0.163 HD
BRANCH  23  26
HETATM   26  C2  UNL     1      25.966   4.561  49.815  1.00  0.00     0.064 C 
HETATM   27  C1  UNL     1      27.043   4.460  49.055  1.00  0.00     0.017 C 
ENDBRANCH  23  26
ENDBRANCH   1  22
BRANCH  21  28
HETATM   28  O2  UNL     1      21.880   5.364  50.876  1.00  0.00    -0.358 OA
HETATM   29  C22 UNL     1      21.311   6.390  50.168  1.00  0.00     0.209 C 
ENDBRANCH  21  28
BRANCH  11  30
HETATM   30  N2  UNL     1      20.507   0.099  54.299  1.00  0.00     0.091 N 
HETATM   31  H11 UNL     1      20.654   1.081  54.598  1.00  0.00     0.314 HD
HETATM   32  H12 UNL     1      19.481  -0.067  54.238  1.00  0.00     0.314 HD
ENDBRANCH  11  30
TORSDOF 4
ENDMDL
