ROOT
HETATM    1  F1  UNL     1      20.109   5.263  45.242  1.00  0.00    -0.208 F 
HETATM    2  C1  UNL     1      20.719   4.634  46.294  1.00  0.00     0.121 C 
HETATM    3  C2  UNL     1      21.675   5.539  46.534  1.00  0.00     0.175 C 
HETATM    4  O1  UNL     1      22.761   5.743  47.425  1.00  0.00    -0.333 OA
HETATM    5  C3  UNL     1      22.423   6.373  48.653  1.00  0.00     0.248 C 
HETATM    6  C4  UNL     1      21.252   7.341  48.413  1.00  0.00     0.221 C 
HETATM    7  O2  UNL     1      20.851   7.775  49.648  1.00  0.00    -0.385 OA
HETATM    8  C5  UNL     1      21.788   8.580  50.246  1.00  0.00     0.187 C 
HETATM    9  C6  UNL     1      23.178   8.013  50.241  1.00  0.00     0.145 C 
HETATM   10  N1  UNL     1      23.479   7.165  49.154  1.00  0.00    -0.383 N 
HETATM   11  C7  UNL     1      24.428   7.683  48.227  1.00  0.00     0.123 C 
HETATM   12  C8  UNL     1      25.729   6.801  48.285  1.00  0.00     0.047 C 
HETATM   13  C9  UNL     1      26.562   7.511  47.322  1.00  0.00    -0.013 C 
HETATM   14  C10 UNL     1      27.739   7.671  47.874  1.00  0.00    -0.030 C 
HETATM   15  C11 UNL     1      28.405   6.526  47.774  1.00  0.00     0.009 C 
HETATM   16  C12 UNL     1      27.790   5.486  48.672  1.00  0.00    -0.015 C 
HETATM   17  C13 UNL     1      27.184   4.395  49.122  1.00  0.00     0.061 C 
HETATM   18  C14 UNL     1      26.509   3.143  49.395  1.00  0.00     0.100 C 
HETATM   19  N2  UNL     1      26.524   3.423  50.679  1.00  0.00    -0.258 NA
HETATM   20  C15 UNL     1      25.975   2.554  51.634  1.00  0.00     0.228 C 
HETATM   21  N3  UNL     1      25.178   1.981  52.451  1.00  0.00    -0.253 NA
HETATM   22  C16 UNL     1      23.831   2.322  52.752  1.00  0.00     0.418 C 
HETATM   23  N4  UNL     1      23.092   2.793  51.627  1.00  0.00     0.104 N 
HETATM   24  C17 UNL     1      23.068   1.800  50.548  1.00  0.00     0.296 C 
HETATM   25  C18 UNL     1      22.229   2.243  49.432  1.00  0.00     0.138 A 
HETATM   26  C19 UNL     1      21.200   2.002  48.670  1.00  0.00    -0.005 A 
HETATM   27 CL1  UNL     1      21.235   0.641  49.749  1.00  0.00    -0.179 Cl
HETATM   28  C20 UNL     1      20.405   2.466  47.600  1.00  0.00     0.024 C 
HETATM   29  C21 UNL     1      21.037   3.624  47.333  1.00  0.00     0.100 C 
HETATM   30  H21 UNL     1      23.496   3.680  51.237  1.00  0.00     0.318 HD
ENDROOT
TORSDOF 0
ENDMDL
