ROOT
HETATM    1  C3  UNL     1      26.563  -1.250  53.530  1.00  0.00     0.011 C 
HETATM    2  C4  UNL     1      25.661  -0.405  52.986  1.00  0.00     0.080 C 
HETATM    3  C5  UNL     1      24.233  -0.394  53.418  1.00  0.00    -0.049 C 
HETATM    4  C6  UNL     1      23.130  -0.370  53.736  1.00  0.00    -0.097 C 
HETATM    5  C7  UNL     1      21.710  -0.365  54.142  1.00  0.00     0.139 C 
HETATM    6  C8  UNL     1      20.844   0.216  53.038  1.00  0.00     0.214 C 
HETATM    7  C9  UNL     1      21.750   0.812  52.446  1.00  0.00     0.030 A 
HETATM    8  C10 UNL     1      21.636   1.623  51.191  1.00  0.00     0.037 A 
HETATM    9  C11 UNL     1      23.014   1.936  51.276  1.00  0.00    -0.067 A 
HETATM   10  C12 UNL     1      24.340   2.603  50.779  1.00  0.00     0.088 A 
HETATM   11  C13 UNL     1      25.253   1.787  51.687  1.00  0.00     0.149 A 
HETATM   12  N1  UNL     1      25.416   2.627  52.603  1.00  0.00    -0.186 NA
HETATM   13  C14 UNL     1      24.136   3.076  53.195  1.00  0.00     0.094 A 
HETATM   14  N2  UNL     1      24.081   2.151  52.177  1.00  0.00     0.000 N 
HETATM   15  N3  UNL     1      25.911   0.524  51.932  1.00  0.00    -0.356 N 
HETATM   16  O1  UNL     1      20.520   0.930  51.873  1.00  0.00     0.000 OA
HETATM   17  C15 UNL     1      19.822   0.535  50.789  1.00  0.00     0.088 C 
HETATM   18  C16 UNL     1      18.311   0.896  50.910  1.00  0.00     0.162 C 
HETATM   19  O2  UNL     1      18.797   1.551  51.846  1.00  0.00    -0.296 OA
HETATM   20  C17 UNL     1      16.845   1.024  50.740  1.00  0.00     0.315 C 
HETATM   21  C18 UNL     1      16.296   2.186  51.532  1.00  0.00     0.211 C 
HETATM   22  O3  UNL     1      15.167   1.782  52.279  1.00  0.00    -0.387 OA
HETATM   23  C19 UNL     1      14.246   1.130  51.471  1.00  0.00     0.198 C 
HETATM   24  C20 UNL     1      14.842  -0.212  51.130  1.00  0.00     0.299 C 
HETATM   25  N4  UNL     1      16.247  -0.233  51.224  1.00  0.00     0.104 N 
HETATM   26  C21 UNL     1      16.791  -0.370  52.575  1.00  0.00     0.275 C 
HETATM   27  C22 UNL     1      17.685  -1.561  52.688  1.00  0.00     0.060 C 
HETATM   28  C23 UNL     1      18.712  -1.441  53.828  1.00  0.00     0.272 C 
HETATM   29  N5  UNL     1      19.688  -0.451  53.654  1.00  0.00     0.097 N 
HETATM   30  H13 UNL     1      26.565   0.534  51.168  1.00  0.00     0.162 HD
HETATM   31  H29 UNL     1      19.968  -0.992  52.770  1.00  0.00     0.317 HD
ENDROOT
BRANCH   1  32
HETATM   32  C2  UNL     1      27.853  -0.987  52.858  1.00  0.00     0.025 C 
HETATM   33  C1  UNL     1      28.900  -0.514  53.874  1.00  0.00     0.009 C 
ENDBRANCH   1  32
TORSDOF 1
ENDMDL
