ROOT
HETATM    1  C9  UNL     1      25.103   0.877  52.775  1.00  0.00    -0.024 A 
HETATM    2  C10 UNL     1      25.721   2.078  53.137  1.00  0.00     0.013 A 
HETATM    3  C11 UNL     1      27.077   2.087  53.491  1.00  0.00     0.011 A 
HETATM    4  C12 UNL     1      27.828   0.922  53.490  1.00  0.00    -0.010 A 
HETATM    5  C14 UNL     1      27.183  -0.241  53.128  1.00  0.00     0.053 A 
HETATM    6  C15 UNL     1      27.866  -1.494  53.094  1.00  0.00     0.100 C 
HETATM    7  N2  UNL     1      28.431  -2.522  53.068  1.00  0.00    -0.191 NA
HETATM    8  C16 UNL     1      25.853  -0.250  52.781  1.00  0.00     0.035 A 
ENDROOT
BRANCH   4   9
HETATM    9  C13 UNL     1      29.275   0.916  53.863  1.00  0.00     0.306 C 
BRANCH   9  10
HETATM   10  N1  UNL     1      29.581   2.108  54.604  1.00  0.00     0.082 N 
HETATM   11  H13 UNL     1      30.558   2.404  54.543  1.00  0.00     0.313 HD
HETATM   12  H14 UNL     1      28.993   2.889  54.244  1.00  0.00     0.313 HD
ENDBRANCH   9  10
ENDBRANCH   4   9
BRANCH   1  13
HETATM   13  C8  UNL     1      23.713   1.184  52.473  1.00  0.00    -0.001 C 
HETATM   14  C7  UNL     1      22.864   0.182  52.552  1.00  0.00     0.063 C 
HETATM   15  O3  UNL     1      22.841  -0.940  53.345  1.00  0.00    -0.328 OA
HETATM   16  C20 UNL     1      21.696   0.287  51.596  1.00  0.00     0.124 C 
HETATM   17  C6  UNL     1      22.296  -0.806  54.671  1.00  0.00     0.363 C 
HETATM   18  O2  UNL     1      21.154  -1.631  54.832  1.00  0.00    -0.277 OA
HETATM   19  C5  UNL     1      20.050  -1.516  54.136  1.00  0.00     0.056 C 
HETATM   20  C4  UNL     1      19.080  -1.407  53.545  1.00  0.00    -0.071 C 
HETATM   21  C3  UNL     1      17.865  -1.270  52.834  1.00  0.00     0.157 C 
HETATM   22  C2  UNL     1      18.035  -0.476  51.545  1.00  0.00     0.275 C 
HETATM   23  O4  UNL     1      18.369   0.848  51.879  1.00  0.00    -0.330 OA
HETATM   24  C19 UNL     1      19.641   1.308  52.083  1.00  0.00     0.163 C 
HETATM   25  C18 UNL     1      20.929   1.476  52.147  1.00  0.00     0.033 C 
HETATM   26  N3  UNL     1      21.739   2.531  52.640  1.00  0.00    -0.387 N 
HETATM   27  C17 UNL     1      23.100   2.482  52.093  1.00  0.00     0.161 C 
HETATM   28  H18 UNL     1      21.184   3.143  53.309  1.00  0.00     0.159 HD
BRANCH  22  29
HETATM   29  O1  UNL     1      16.794  -0.400  50.886  1.00  0.00    -0.365 OA
HETATM   30  C1  UNL     1      16.983   0.212  49.633  1.00  0.00     0.204 C 
ENDBRANCH  22  29
ENDBRANCH   1  13
TORSDOF 4
ENDMDL
