ROOT
HETATM    1  C6  UNL     1      23.127   0.357  52.582  1.00  0.00     0.112 A 
HETATM    2  C7  UNL     1      24.520   0.074  52.415  1.00  0.00     0.222 A 
HETATM    3  N1  UNL     1      25.464  -0.475  53.415  1.00  0.00    -0.189 N 
HETATM    4  N2  UNL     1      24.824  -0.994  54.651  1.00  0.00     0.085 N 
HETATM    5  C14 UNL     1      23.399  -1.249  55.317  1.00  0.00     0.363 A 
HETATM    6  N3  UNL     1      22.227  -1.239  55.464  1.00  0.00    -0.259 NA
HETATM    7  C15 UNL     1      21.427  -0.625  54.516  1.00  0.00     0.189 A 
HETATM    8  C16 UNL     1      21.997  -0.008  53.369  1.00  0.00     0.078 A 
HETATM    9  S1  UNL     1      23.430  -0.416  53.875  1.00  0.00    -0.025 SA
HETATM   10  H13 UNL     1      25.252  -1.413  55.570  1.00  0.00     0.326 HD
ENDROOT
BRANCH   3  11
HETATM   11  C8  UNL     1      26.920  -0.666  53.543  1.00  0.00     0.092 A 
HETATM   12  C9  UNL     1      27.456  -1.731  52.857  1.00  0.00     0.037 A 
HETATM   13  C10 UNL     1      28.815  -1.856  53.029  1.00  0.00     0.045 A 
HETATM   14  C11 UNL     1      29.486  -0.955  53.830  1.00  0.00     0.119 A 
HETATM   15  F1  UNL     1      30.844  -1.055  54.023  1.00  0.00    -0.206 F 
HETATM   16  C12 UNL     1      28.889   0.089  54.490  1.00  0.00     0.081 A 
HETATM   17  C13 UNL     1      27.533   0.252  54.345  1.00  0.00     0.097 A 
BRANCH  17  18
HETATM   18  O2  UNL     1      26.849   1.280  54.976  1.00  0.00    -0.358 OA
HETATM   19  H12 UNL     1      25.932   1.492  54.564  1.00  0.00     0.217 HD
ENDBRANCH  17  18
ENDBRANCH   3  11
BRANCH   1  20
HETATM   20  C5  UNL     1      22.950   1.903  52.466  1.00  0.00    -0.043 A 
HETATM   21  C4  UNL     1      23.843   2.911  52.750  1.00  0.00     0.011 A 
HETATM   22  C3  UNL     1      23.425   4.200  52.560  1.00  0.00     0.037 A 
HETATM   23  C2  UNL     1      22.176   4.526  52.106  1.00  0.00     0.068 A 
HETATM   24  C18 UNL     1      21.304   3.496  51.830  1.00  0.00     0.037 A 
HETATM   25  C17 UNL     1      21.672   2.177  52.003  1.00  0.00     0.011 A 
BRANCH  23  26
HETATM   26  O1  UNL     1      21.971   5.882  51.990  1.00  0.00    -0.356 OA
HETATM   27  C1  UNL     1      21.595   6.428  50.752  1.00  0.00     0.210 C 
ENDBRANCH  23  26
ENDBRANCH   1  20
TORSDOF 4
ENDMDL
