ROOT
HETATM    1  C1  UNL     1      28.864  -2.921  53.131  1.00  0.00     0.018 C 
HETATM    2  C2  UNL     1      28.569  -1.737  53.166  1.00  0.00    -0.078 C 
HETATM    3  C3  UNL     1      28.231  -0.335  53.197  1.00  0.00     0.019 A 
HETATM    4  C4  UNL     1      29.093   0.602  53.761  1.00  0.00     0.021 A 
HETATM    5  C5  UNL     1      28.719   1.928  53.761  1.00  0.00     0.004 A 
HETATM    6  C6  UNL     1      27.518   2.313  53.214  1.00  0.00     0.029 A 
HETATM    7  C7  UNL     1      26.622   1.427  52.642  1.00  0.00     0.035 A 
HETATM    8  C22 UNL     1      27.054   0.116  52.673  1.00  0.00     0.050 A 
ENDROOT
BRANCH   7   9
HETATM    9  N1  UNL     1      25.375   1.785  52.066  1.00  0.00    -0.340 N 
HETATM   10  H5  UNL     1      25.413   2.402  51.237  1.00  0.00     0.167 HD
BRANCH   9  11
HETATM   11  C8  UNL     1      24.125   1.369  52.535  1.00  0.00     0.138 C 
HETATM   12  N2  UNL     1      23.697   0.413  53.353  1.00  0.00    -0.224 NA
HETATM   13  C9  UNL     1      22.896  -0.552  52.875  1.00  0.00     0.234 C 
HETATM   14  N3  UNL     1      22.504  -0.852  54.104  1.00  0.00    -0.254 NA
HETATM   15  C10 UNL     1      21.503  -0.229  54.749  1.00  0.00     0.121 C 
HETATM   16  C11 UNL     1      20.588   0.506  54.018  1.00  0.00     0.059 C 
HETATM   17  C12 UNL     1      20.375   0.468  52.657  1.00  0.00     0.106 C 
HETATM   18  C16 UNL     1      20.688   1.180  51.548  1.00  0.00     0.136 C 
HETATM   19  C17 UNL     1      21.846   1.878  51.317  1.00  0.00     0.114 C 
HETATM   20  O3  UNL     1      19.720   1.180  50.579  1.00  0.00    -0.344 OA
HETATM   21  C18 UNL     1      22.975   2.048  52.110  1.00  0.00     0.020 C 
HETATM   22  O2  UNL     1      22.075   2.580  50.147  1.00  0.00    -0.345 OA
HETATM   23  C19 UNL     1      23.054   3.385  52.754  1.00  0.00     0.055 C 
HETATM   24  C20 UNL     1      21.030   2.665  49.190  1.00  0.00     0.202 C 
HETATM   25  C21 UNL     1      20.113   1.464  49.228  1.00  0.00     0.202 C 
BRANCH  17  26
HETATM   26  O1  UNL     1      19.650  -0.668  52.772  1.00  0.00    -0.344 OA
BRANCH  26  27
HETATM   27  C13 UNL     1      18.354  -0.906  53.169  1.00  0.00     0.121 C 
HETATM   28  C14 UNL     1      17.350  -0.641  52.039  1.00  0.00     0.040 C 
HETATM   29  C15 UNL     1      18.112  -2.298  53.713  1.00  0.00     0.040 C 
ENDBRANCH  26  27
ENDBRANCH  17  26
ENDBRANCH   9  11
ENDBRANCH   7   9
TORSDOF 4
ENDMDL
