ROOT
HETATM    1  C9  UNL     1      22.569   2.900  51.150  1.00  0.00     0.121 C 
HETATM    2  N4  UNL     1      22.289   2.184  50.130  1.00  0.00    -0.268 NA
HETATM    3  C10 UNL     1      22.667   2.483  48.744  1.00  0.00     0.191 C 
HETATM    4  C11 UNL     1      23.644   3.644  48.802  1.00  0.00    -0.015 A 
HETATM    5  C12 UNL     1      24.647   3.195  49.613  1.00  0.00     0.012 A 
HETATM    6  C13 UNL     1      25.496   4.198  49.968  1.00  0.00     0.030 A 
HETATM    7  C14 UNL     1      25.181   5.459  49.439  1.00  0.00     0.034 A 
HETATM    8  C15 UNL     1      24.121   5.835  48.591  1.00  0.00     0.054 A 
HETATM    9  C16 UNL     1      23.272   4.815  48.243  1.00  0.00     0.084 A 
HETATM   10  N6  UNL     1      26.049   6.510  49.986  1.00  0.00    -0.351 N 
HETATM   11  C17 UNL     1      24.856   6.638  50.835  1.00  0.00     0.207 C 
HETATM   12  N7  UNL     1      23.866   6.373  51.581  1.00  0.00    -0.256 NA
HETATM   13  C18 UNL     1      23.417   5.135  52.036  1.00  0.00     0.122 C 
HETATM   14  C19 UNL     1      22.965   3.902  52.145  1.00  0.00     0.069 C 
HETATM   15  H22 UNL     1      26.854   7.087  50.110  1.00  0.00     0.166 HD
ENDROOT
BRANCH   1  16
HETATM   16  N3  UNL     1      21.827   1.831  51.868  1.00  0.00    -0.366 N 
HETATM   17  C8  UNL     1      20.635   1.822  52.709  1.00  0.00     0.151 C 
BRANCH  16  18
HETATM   18  C7  UNL     1      22.259   0.436  51.867  1.00  0.00     0.166 C 
BRANCH  18  19
HETATM   19  C6  UNL     1      23.184   0.066  52.949  1.00  0.00     0.009 A 
HETATM   20  C2  UNL     1      22.824  -0.703  54.056  1.00  0.00     0.061 A 
HETATM   21  C1  UNL     1      21.543  -1.281  54.541  1.00  0.00     0.073 C 
HETATM   22  N1  UNL     1      23.907  -0.892  54.824  1.00  0.00    -0.177 NA
HETATM   23  N2  UNL     1      24.950  -0.284  54.279  1.00  0.00    -0.278 N 
HETATM   24  C3  UNL     1      26.274  -0.327  54.922  1.00  0.00     0.179 C 
HETATM   25  C4  UNL     1      24.532   0.313  53.130  1.00  0.00     0.036 A 
HETATM   26  C5  UNL     1      25.421   1.074  52.241  1.00  0.00     0.070 C 
ENDBRANCH  18  19
ENDBRANCH  16  18
ENDBRANCH   1  16
BRANCH   9  27
HETATM   27  S1  UNL     1      21.964   5.087  47.125  1.00  0.00     0.240 S 
HETATM   28  O1  UNL     1      21.918   4.143  45.974  1.00  0.00    -0.206 OA
HETATM   29  O2  UNL     1      20.669   5.050  47.862  1.00  0.00    -0.206 OA
BRANCH  27  30
HETATM   30  N5  UNL     1      22.118   6.694  46.427  1.00  0.00    -0.225 NA
HETATM   31  H20 UNL     1      22.500   7.364  47.169  1.00  0.00     0.136 HD
HETATM   32  H21 UNL     1      22.859   6.665  45.688  1.00  0.00     0.136 HD
ENDBRANCH  27  30
ENDBRANCH   9  27
TORSDOF 5
ENDMDL
