ROOT
HETATM    1  C1  UNL     1      19.006   3.268  51.835  1.00  0.00     0.024 C 
HETATM    2  C2  UNL     1      20.270   2.557  51.949  1.00  0.00     0.025 A 
HETATM    3  C3  UNL     1      20.354   1.430  52.685  1.00  0.00     0.018 A 
HETATM    4  C4  UNL     1      21.010   0.236  53.280  1.00  0.00    -0.014 C 
HETATM    5  C5  UNL     1      22.269  -0.246  53.369  1.00  0.00    -0.001 C 
HETATM    6  C6  UNL     1      23.541   0.275  52.944  1.00  0.00     0.026 C 
HETATM    7  C7  UNL     1      24.159   1.359  52.410  1.00  0.00     0.029 C 
HETATM    8  C13 UNL     1      23.388   2.580  52.707  1.00  0.00     0.205 C 
HETATM    9  N2  UNL     1      22.739   3.419  51.827  1.00  0.00    -0.290 NA
HETATM   10  C14 UNL     1      21.460   3.428  51.511  1.00  0.00     0.035 C 
HETATM   11  C15 UNL     1      21.299   4.534  50.550  1.00  0.00     0.172 C 
HETATM   12  N3  UNL     1      21.530   4.041  49.262  1.00  0.00    -0.407 N 
HETATM   13  C16 UNL     1      20.490   3.505  48.491  1.00  0.00     0.117 C 
HETATM   14  C17 UNL     1      20.414   2.029  48.760  1.00  0.00     0.024 C 
HETATM   15  C18 UNL     1      21.630   1.394  49.353  1.00  0.00    -0.012 C 
HETATM   16  C19 UNL     1      22.887   2.102  49.008  1.00  0.00     0.024 C 
HETATM   17  C20 UNL     1      22.841   3.605  48.950  1.00  0.00     0.117 C 
HETATM   18  C21 UNL     1      21.456   0.780  50.666  1.00  0.00     0.005 C 
HETATM   19  O1  UNL     1      21.541   1.566  51.894  1.00  0.00     0.000 OA
ENDROOT
BRANCH   7  20
HETATM   20  N1  UNL     1      25.439   1.787  51.986  1.00  0.00    -0.368 N 
HETATM   21  H7  UNL     1      26.252   1.222  52.282  1.00  0.00     0.165 HD
BRANCH  20  22
HETATM   22  C8  UNL     1      25.838   2.896  51.196  1.00  0.00     0.088 C 
HETATM   23  C9  UNL     1      26.420   2.891  50.011  1.00  0.00     0.017 C 
BRANCH  23  24
HETATM   24  C10 UNL     1      26.819   4.049  49.223  1.00  0.00    -0.002 C 
HETATM   25  C11 UNL     1      26.174   5.192  49.394  1.00  0.00    -0.016 C 
BRANCH  25  26
HETATM   26  C12 UNL     1      26.587   6.359  48.589  1.00  0.00     0.112 C 
HETATM   27 BR1  UNL     1      28.468   6.180  48.207  1.00  0.00    -0.092 Br
ENDBRANCH  25  26
ENDBRANCH  23  24
ENDBRANCH  20  22
ENDBRANCH   7  20
TORSDOF 4
ENDMDL
