ROOT
HETATM    1  C6  UNL     1      24.632   0.645  53.121  1.00  0.00     0.011 C 
HETATM    2  C7  UNL     1      24.462   1.863  52.575  1.00  0.00     0.066 C 
HETATM    3  C8  UNL     1      23.354   2.672  52.028  1.00  0.00     0.124 C 
HETATM    4  C9  UNL     1      22.066   2.376  51.791  1.00  0.00     0.157 C 
HETATM    5  N3  UNL     1      21.760   3.670  51.259  1.00  0.00    -0.245 NA
HETATM    6  C10 UNL     1      21.071   3.709  50.091  1.00  0.00     0.093 C 
HETATM    7  C11 UNL     1      21.042   5.210  50.045  1.00  0.00     0.064 C 
HETATM    8  C12 UNL     1      22.519   5.591  49.600  1.00  0.00     0.137 C 
HETATM    9  N4  UNL     1      22.900   6.893  49.991  1.00  0.00    -0.124 NA
HETATM   10  N5  UNL     1      23.689   6.848  51.126  1.00  0.00    -0.005 NA
HETATM   11  N6  UNL     1      23.836   5.444  51.478  1.00  0.00    -0.152 NA
HETATM   12  C13 UNL     1      23.203   4.966  52.457  1.00  0.00     0.278 C 
HETATM   13  O1  UNL     1      24.013   3.927  51.856  1.00  0.00    -0.299 OA
HETATM   14  N7  UNL     1      21.244   1.279  51.875  1.00  0.00    -0.372 N 
HETATM   15  C14 UNL     1      20.366   0.216  52.174  1.00  0.00     0.128 C 
HETATM   16  C15 UNL     1      20.993  -0.725  53.138  1.00  0.00     0.035 C 
HETATM   17  C16 UNL     1      21.567  -1.668  53.978  1.00  0.00     0.105 C 
HETATM   18  N8  UNL     1      21.909  -0.951  55.143  1.00  0.00    -0.414 N 
HETATM   19  C17 UNL     1      23.377  -0.781  54.876  1.00  0.00     0.120 C 
HETATM   20  C18 UNL     1      23.408  -0.045  53.577  1.00  0.00     0.076 C 
HETATM   21  H21 UNL     1      21.666   1.203  50.894  1.00  0.00     0.161 HD
HETATM   22  H26 UNL     1      20.911  -1.003  55.453  1.00  0.00     0.153 HD
ENDROOT
BRANCH   1  23
HETATM   23  N2  UNL     1      25.910   0.109  53.515  1.00  0.00    -0.387 N 
HETATM   24  C5  UNL     1      26.304  -1.071  52.771  1.00  0.00     0.149 C 
BRANCH  23  25
HETATM   25  C4  UNL     1      26.807   0.699  54.459  1.00  0.00     0.152 C 
BRANCH  25  26
HETATM   26  C3  UNL     1      28.020  -0.159  54.760  1.00  0.00     0.291 C 
BRANCH  26  27
HETATM   27  N1  UNL     1      29.225   0.634  54.423  1.00  0.00     0.081 N 
HETATM   28  C1  UNL     1      30.019  -0.127  53.470  1.00  0.00     0.309 C 
HETATM   29  C2  UNL     1      28.791   1.872  53.773  1.00  0.00     0.309 C 
ENDBRANCH  26  27
ENDBRANCH  25  26
ENDBRANCH  23  25
ENDBRANCH   1  23
TORSDOF 4
ENDMDL
