ROOT
HETATM    1  C5  UNL     1      23.904   3.054  52.269  1.00  0.00     0.050 C 
HETATM    2  C6  UNL     1      22.713   2.406  52.455  1.00  0.00     0.203 A 
HETATM    3  C7  UNL     1      21.235   2.664  52.317  1.00  0.00     0.018 A 
HETATM    4  C8  UNL     1      21.224   1.445  52.739  1.00  0.00     0.091 A 
HETATM    5  N3  UNL     1      22.595   1.241  52.851  1.00  0.00    -0.341 N 
HETATM    6  C9  UNL     1      23.121   0.084  53.139  1.00  0.00     0.210 C 
HETATM    7  N4  UNL     1      24.515   0.023  53.214  1.00  0.00    -0.247 NA
HETATM    8  C10 UNL     1      25.229   1.052  52.943  1.00  0.00     0.048 C 
HETATM    9  C17 UNL     1      25.227   2.470  52.507  1.00  0.00     0.088 C 
ENDROOT
BRANCH   1  10
HETATM   10  N2  UNL     1      24.382   4.410  51.815  1.00  0.00    -0.342 N 
HETATM   11  C4  UNL     1      24.579   4.829  50.485  1.00  0.00     0.296 C 
HETATM   12  O2  UNL     1      24.429   4.217  49.393  1.00  0.00    -0.258 OA
HETATM   13  H5  UNL     1      24.579   5.073  52.635  1.00  0.00     0.163 HD
BRANCH  11  14
HETATM   14  C3  UNL     1      25.026   6.191  50.324  1.00  0.00    -0.003 C 
HETATM   15  C2  UNL     1      25.417   7.334  50.198  1.00  0.00    -0.068 C 
BRANCH  15  16
HETATM   16  C1  UNL     1      25.894   8.722  50.048  1.00  0.00     0.287 C 
BRANCH  16  17
HETATM   17  O1  UNL     1      27.278   8.765  50.053  1.00  0.00    -0.296 OA
BRANCH  17  18
HETATM   18  N1  UNL     1      27.633   9.544  51.114  1.00  0.00    -0.214 NA
HETATM   19  H1  UNL     1      28.004  10.463  50.785  1.00  0.00     0.150 HD
HETATM   20  H2  UNL     1      26.814   9.709  51.752  1.00  0.00     0.150 HD
ENDBRANCH  17  18
ENDBRANCH  16  17
ENDBRANCH  15  16
ENDBRANCH  11  14
ENDBRANCH   1  10
BRANCH   8  21
HETATM   21  C11 UNL     1      26.635   0.609  53.127  1.00  0.00    -0.010 A 
HETATM   22  C12 UNL     1      27.659   1.495  53.464  1.00  0.00     0.016 A 
HETATM   23  C13 UNL     1      28.997   1.130  53.691  1.00  0.00     0.045 A 
HETATM   24  C14 UNL     1      29.317  -0.204  53.570  1.00  0.00     0.138 A 
HETATM   25  F1  UNL     1      30.595  -0.601  53.781  1.00  0.00    -0.204 F 
HETATM   26  C15 UNL     1      28.379  -1.141  53.240  1.00  0.00     0.073 A 
HETATM   27 CL1  UNL     1      28.744  -2.842  53.068  1.00  0.00    -0.081 Cl
HETATM   28  C16 UNL     1      27.114  -0.686  53.042  1.00  0.00     0.040 A 
ENDBRANCH   8  21
TORSDOF 6
ENDMDL
