ROOT
HETATM    1  C7  UNL     1      24.871   0.378  52.653  1.00  0.00     0.035 A 
HETATM    2  C8  UNL     1      24.125   1.414  52.123  1.00  0.00     0.045 A 
HETATM    3  C9  UNL     1      22.790   1.457  52.466  1.00  0.00     0.042 A 
HETATM    4  C10 UNL     1      22.050   2.483  51.943  1.00  0.00     0.142 A 
HETATM    5  N2  UNL     1      20.735   2.552  52.261  1.00  0.00    -0.224 NA
HETATM    6  C16 UNL     1      20.178   1.617  53.082  1.00  0.00     0.236 A 
HETATM    7  N3  UNL     1      20.939   0.610  53.586  1.00  0.00    -0.240 NA
HETATM    8  C17 UNL     1      22.248   0.497  53.301  1.00  0.00     0.089 A 
HETATM    9  C18 UNL     1      23.043  -0.523  53.804  1.00  0.00     0.149 A 
HETATM   10  N4  UNL     1      24.360  -0.568  53.468  1.00  0.00    -0.263 NA
ENDROOT
BRANCH   4  11
HETATM   11  N1  UNL     1      22.518   3.507  51.083  1.00  0.00    -0.330 N 
HETATM   12  C11 UNL     1      22.488   3.425  49.631  1.00  0.00     0.156 C 
HETATM   13  C12 UNL     1      23.890   3.497  49.082  1.00  0.00     0.012 C 
HETATM   14  C13 UNL     1      24.835   4.179  49.737  1.00  0.00     0.014 C 
HETATM   15 CL1  UNL     1      26.515   4.358  49.230  1.00  0.00    -0.089 Cl
HETATM   16  C14 UNL     1      24.549   4.884  51.012  1.00  0.00     0.110 C 
HETATM   17  C15 UNL     1      23.098   4.793  51.415  1.00  0.00     0.278 C 
HETATM   18  F1  UNL     1      23.060   5.014  52.796  1.00  0.00    -0.226 F 
ENDBRANCH   4  11
BRANCH   1  19
HETATM   19  C6  UNL     1      26.319   0.234  52.351  1.00  0.00     0.059 C 
BRANCH  19  20
HETATM   20  C5  UNL     1      27.003  -0.732  53.263  1.00  0.00     0.007 C 
BRANCH  20  21
HETATM   21  C4  UNL     1      27.577  -0.142  54.504  1.00  0.00     0.011 C 
BRANCH  21  22
HETATM   22  C2  UNL     1      29.043   0.004  54.558  1.00  0.00     0.043 C 
HETATM   23  C1  UNL     1      29.734  -0.889  53.535  1.00  0.00     0.017 C 
BRANCH  22  24
HETATM   24  C3  UNL     1      29.384   1.399  54.151  1.00  0.00     0.235 C 
HETATM   25  O1  UNL     1      28.821   2.500  54.207  1.00  0.00    -0.306 OA
ENDBRANCH  22  24
ENDBRANCH  21  22
ENDBRANCH  20  21
ENDBRANCH  19  20
ENDBRANCH   1  19
TORSDOF 6
ENDMDL
