ROOT
HETATM    1  C1  UNL     1      18.848  -0.633  53.038  1.00  0.00     0.018 C 
HETATM    2  C2  UNL     1      20.007  -0.646  53.369  1.00  0.00    -0.078 C 
HETATM    3  C3  UNL     1      21.389  -0.659  53.740  1.00  0.00     0.017 A 
HETATM    4  C4  UNL     1      21.784  -1.358  54.868  1.00  0.00     0.020 A 
HETATM    5  C5  UNL     1      23.106  -1.422  55.326  1.00  0.00     0.002 A 
HETATM    6  C6  UNL     1      23.972  -0.719  54.541  1.00  0.00     0.013 A 
HETATM    7  C7  UNL     1      23.710   0.006  53.410  1.00  0.00    -0.009 A 
HETATM    8  C21 UNL     1      22.375  -0.001  53.054  1.00  0.00     0.034 A 
ENDROOT
BRANCH   7   9
HETATM    9  C8  UNL     1      24.591   0.775  52.561  1.00  0.00     0.059 C 
HETATM   10  N1  UNL     1      25.903   0.513  52.586  1.00  0.00    -0.234 NA
HETATM   11  C9  UNL     1      26.608   1.389  51.660  1.00  0.00     0.292 C 
HETATM   12  N2  UNL     1      26.756   2.291  50.930  1.00  0.00    -0.435 NA
HETATM   13  C10 UNL     1      26.708   3.385  50.137  1.00  0.00     0.286 C 
HETATM   14  C11 UNL     1      25.349   3.948  49.855  1.00  0.00     0.112 C 
HETATM   15  C16 UNL     1      24.054   3.782  50.150  1.00  0.00     0.130 C 
HETATM   16  O3  UNL     1      23.072   4.576  49.620  1.00  0.00    -0.344 OA
HETATM   17  C19 UNL     1      23.408   2.778  51.054  1.00  0.00     0.093 C 
HETATM   18  C17 UNL     1      21.837   4.013  49.197  1.00  0.00     0.202 C 
HETATM   19  C18 UNL     1      21.151   3.257  50.287  1.00  0.00     0.202 C 
HETATM   20  O4  UNL     1      22.057   2.740  51.249  1.00  0.00    -0.350 OA
HETATM   21  C20 UNL     1      23.758   1.815  51.806  1.00  0.00     0.115 C 
BRANCH  14  22
HETATM   22  O1  UNL     1      25.577   5.015  48.971  1.00  0.00    -0.343 OA
BRANCH  22  23
HETATM   23  C12 UNL     1      26.307   6.168  49.308  1.00  0.00     0.148 C 
HETATM   24  C13 UNL     1      27.259   6.499  48.187  1.00  0.00     0.042 C 
BRANCH  23  25
HETATM   25  C14 UNL     1      25.394   7.354  49.529  1.00  0.00     0.199 C 
BRANCH  25  26
HETATM   26  O2  UNL     1      24.823   7.298  50.793  1.00  0.00    -0.393 OA
HETATM   27  C15 UNL     1      23.560   7.874  50.750  1.00  0.00     0.201 C 
ENDBRANCH  25  26
ENDBRANCH  23  25
ENDBRANCH  22  23
ENDBRANCH  14  22
ENDBRANCH   7   9
TORSDOF 5
ENDMDL
