ROOT
HETATM    1 CL1  UNL     1      19.494  -0.889  53.657  1.00  0.00    -0.087 Cl
HETATM    2  C1  UNL     1      21.254  -0.558  53.895  1.00  0.00     0.042 C 
HETATM    3  C2  UNL     1      22.299  -0.968  54.589  1.00  0.00     0.021 C 
HETATM    4  C3  UNL     1      23.104  -1.722  55.492  1.00  0.00    -0.001 C 
HETATM    5  C4  UNL     1      24.373  -1.310  55.707  1.00  0.00     0.003 C 
HETATM    6  C5  UNL     1      25.312  -0.266  55.347  1.00  0.00     0.299 C 
HETATM    7  N1  UNL     1      26.352  -0.570  54.417  1.00  0.00     0.105 NA
HETATM    8  C6  UNL     1      25.799  -0.666  53.065  1.00  0.00     0.417 C 
HETATM    9  N2  UNL     1      26.769  -0.235  52.081  1.00  0.00    -0.272 NA
HETATM   10  C7  UNL     1      26.642   1.009  51.617  1.00  0.00     0.119 C 
HETATM   11  C8  UNL     1      25.641   2.071  51.949  1.00  0.00     0.008 A 
HETATM   12  C9  UNL     1      24.509   1.627  51.116  1.00  0.00     0.299 A 
HETATM   13  N3  UNL     1      23.688   2.532  51.444  1.00  0.00     0.040 N 
HETATM   14  C10 UNL     1      22.368   2.896  51.131  1.00  0.00     0.395 A 
HETATM   15  C11 UNL     1      23.608   2.847  51.632  1.00  0.00     0.367 A 
HETATM   16  N4  UNL     1      22.939   4.309  51.710  1.00  0.00     0.012 N 
HETATM   17  C20 UNL     1      24.772   3.070  52.292  1.00  0.00     0.299 A 
HETATM   18  C21 UNL     1      22.367   1.459  51.097  1.00  0.00     0.372 C 
HETATM   19  N6  UNL     1      21.646   1.344  52.368  1.00  0.00     0.321 N 
HETATM   20  C22 UNL     1      21.627  -0.181  52.521  1.00  0.00     0.366 C 
HETATM   21  H6  UNL     1      27.113   0.144  54.433  1.00  0.00     0.318 HD
HETATM   22  H11 UNL     1      22.122   5.066  51.743  1.00  0.00     0.286 HD
ENDROOT
BRANCH  16  23
HETATM   23  C12 UNL     1      23.873   5.505  52.005  1.00  0.00     0.242 C 
BRANCH  23  24
HETATM   24  C13 UNL     1      23.767   6.360  50.718  1.00  0.00     0.032 C 
BRANCH  24  25
HETATM   25  C14 UNL     1      23.918   5.671  49.426  1.00  0.00     0.042 C 
BRANCH  25  26
HETATM   26  C15 UNL     1      25.425   5.708  49.064  1.00  0.00    -0.041 A 
HETATM   27  C16 UNL     1      25.969   4.475  49.207  1.00  0.00     0.010 A 
HETATM   28  C17 UNL     1      27.319   4.527  48.866  1.00  0.00     0.020 A 
HETATM   29  C18 UNL     1      27.777   5.790  48.475  1.00  0.00     0.116 A 
HETATM   30  N5  UNL     1      27.156   7.013  48.357  1.00  0.00    -0.273 NA
HETATM   31  C19 UNL     1      25.726   6.967  48.710  1.00  0.00     0.123 A 
ENDBRANCH  25  26
ENDBRANCH  24  25
ENDBRANCH  23  24
ENDBRANCH  16  23
TORSDOF 5
ENDMDL
