ROOT
HETATM    1  C8  UNL     1      24.152   2.332  52.949  1.00  0.00     0.138 A 
HETATM    2  N2  UNL     1      22.932   1.778  52.970  1.00  0.00    -0.224 NA
HETATM    3  C9  UNL     1      22.685   0.479  53.171  1.00  0.00     0.235 A 
HETATM    4  N3  UNL     1      23.687  -0.396  53.374  1.00  0.00    -0.241 NA
HETATM    5  C10 UNL     1      24.931   0.087  53.367  1.00  0.00     0.075 A 
HETATM    6  C11 UNL     1      25.939  -0.826  53.577  1.00  0.00     0.072 A 
HETATM    7  C12 UNL     1      27.254  -0.438  53.589  1.00  0.00     0.103 A 
HETATM    8  C14 UNL     1      27.534   0.897  53.384  1.00  0.00     0.102 A 
HETATM    9  C16 UNL     1      26.491   1.782  53.177  1.00  0.00     0.057 A 
HETATM   10  C17 UNL     1      25.170   1.429  53.158  1.00  0.00     0.041 A 
ENDROOT
BRANCH   1  11
HETATM   11  N1  UNL     1      24.414   3.694  52.726  1.00  0.00    -0.368 N 
HETATM   12  H11 UNL     1      25.275   4.143  53.097  1.00  0.00     0.161 HD
BRANCH  11  13
HETATM   13  C7  UNL     1      23.608   4.652  52.004  1.00  0.00     0.185 C 
BRANCH  13  14
HETATM   14  C6  UNL     1      23.372   4.305  50.583  1.00  0.00     0.064 C 
HETATM   15  C5  UNL     1      24.160   4.113  49.511  1.00  0.00     0.040 C 
BRANCH  15  16
HETATM   16  C3  UNL     1      25.603   4.176  49.340  1.00  0.00    -0.064 C 
HETATM   17  C2  UNL     1      26.136   5.281  48.837  1.00  0.00    -0.024 C 
HETATM   18  C1  UNL     1      27.604   5.367  48.658  1.00  0.00     0.036 C 
HETATM   19  C4  UNL     1      26.549   3.100  49.686  1.00  0.00     0.048 C 
ENDBRANCH  15  16
BRANCH  14  20
HETATM   20  O3  UNL     1      21.984   4.162  50.390  1.00  0.00    -0.359 OA
HETATM   21  C18 UNL     1      21.054   4.572  51.374  1.00  0.00     0.209 C 
ENDBRANCH  14  20
ENDBRANCH  13  14
ENDBRANCH  11  13
ENDBRANCH   1  11
BRANCH   8  22
HETATM   22  O2  UNL     1      28.845   1.279  53.398  1.00  0.00    -0.353 OA
HETATM   23  C15 UNL     1      29.471   1.922  54.494  1.00  0.00     0.210 C 
ENDBRANCH   8  22
BRANCH   7  24
HETATM   24  O1  UNL     1      28.289  -1.336  53.799  1.00  0.00    -0.353 OA
HETATM   25  C13 UNL     1      28.574  -2.411  52.950  1.00  0.00     0.210 C 
ENDBRANCH   7  24
TORSDOF 7
ENDMDL
