ROOT
HETATM    1  C7  UNL     1      24.040   1.677  51.562  1.00  0.00     0.032 C 
HETATM    2  C8  UNL     1      22.795   1.758  51.039  1.00  0.00     0.043 C 
HETATM    3  C9  UNL     1      21.414   1.191  51.303  1.00  0.00    -0.004 A 
HETATM    4  C10 UNL     1      20.557   1.538  50.375  1.00  0.00     0.128 A 
HETATM    5  N1  UNL     1      19.400   0.919  50.597  1.00  0.00    -0.272 NA
HETATM    6  C11 UNL     1      19.114   0.073  51.588  1.00  0.00     0.117 A 
HETATM    7  C12 UNL     1      20.041  -0.296  52.582  1.00  0.00     0.034 A 
HETATM    8  C13 UNL     1      21.258   0.353  52.359  1.00  0.00     0.013 A 
HETATM    9  C14 UNL     1      21.931  -0.303  53.528  1.00  0.00     0.173 A 
HETATM   10  C15 UNL     1      21.138  -0.907  54.548  1.00  0.00     0.066 A 
HETATM   11  C16 UNL     1      22.512  -1.192  54.975  1.00  0.00     0.353 A 
HETATM   12  N2  UNL     1      23.595  -0.819  54.342  1.00  0.00    -0.032 NA
HETATM   13  C17 UNL     1      24.317  -0.311  53.503  1.00  0.00     0.385 A 
HETATM   14  N3  UNL     1      23.152  -0.558  53.929  1.00  0.00     0.105 N 
HETATM   15  N4  UNL     1      24.130   0.608  52.567  1.00  0.00    -0.336 N 
HETATM   16  H13 UNL     1      25.144   0.759  53.015  1.00  0.00     0.163 HD
ENDROOT
BRANCH   1  17
HETATM   17  C6  UNL     1      25.092   2.484  51.243  1.00  0.00     0.029 C 
HETATM   18  C5  UNL     1      26.373   2.525  51.368  1.00  0.00     0.004 C 
BRANCH  18  19
HETATM   19  C4  UNL     1      27.167   1.497  52.029  1.00  0.00     0.024 C 
HETATM   20  C3  UNL     1      27.759   1.894  53.156  1.00  0.00     0.138 C 
BRANCH  20  21
HETATM   21  O1  UNL     1      28.541   1.666  54.240  1.00  0.00    -0.322 OA
BRANCH  21  22
HETATM   22  C2  UNL     1      28.604   0.372  54.846  1.00  0.00     0.376 C 
HETATM   23  F3  UNL     1      27.296  -0.092  54.895  1.00  0.00    -0.213 F 
BRANCH  22  24
HETATM   24  C1  UNL     1      29.433  -0.597  54.050  1.00  0.00     0.413 C 
HETATM   25  F1  UNL     1      28.568  -1.295  53.203  1.00  0.00    -0.209 F 
HETATM   26  F2  UNL     1      30.374   0.018  53.247  1.00  0.00    -0.209 F 
ENDBRANCH  22  24
ENDBRANCH  21  22
ENDBRANCH  20  21
ENDBRANCH  18  19
ENDBRANCH   1  17
TORSDOF 5
ENDMDL
