ROOT
HETATM    1  C1  UNL     1      18.765   0.381  51.808  1.00  0.00     0.180 C 
HETATM    2  N1  UNL     1      19.941   0.307  52.694  1.00  0.00    -0.274 N 
HETATM    3  N2  UNL     1      19.951   0.256  54.015  1.00  0.00    -0.184 NA
HETATM    4  C2  UNL     1      21.256   0.202  54.357  1.00  0.00     0.149 A 
HETATM    5  C3  UNL     1      22.030   0.223  53.189  1.00  0.00     0.001 A 
HETATM    6  C4  UNL     1      21.125   0.292  52.095  1.00  0.00     0.061 A 
HETATM    7  C5  UNL     1      21.682   0.312  50.888  1.00  0.00     0.033 C 
HETATM    8  C6  UNL     1      20.902   0.370  49.663  1.00  0.00     0.016 C 
HETATM    9  C7  UNL     1      20.775   1.473  48.933  1.00  0.00    -0.009 C 
HETATM   10  C8  UNL     1      21.530   2.431  49.434  1.00  0.00     0.095 C 
HETATM   11  N3  UNL     1      22.940   2.247  49.482  1.00  0.00    -0.393 N 
HETATM   12  C9  UNL     1      23.567   3.434  50.128  1.00  0.00     0.081 C 
HETATM   13  C10 UNL     1      25.035   3.511  50.000  1.00  0.00     0.029 C 
HETATM   14  C11 UNL     1      25.809   3.425  51.315  1.00  0.00     0.038 C 
HETATM   15  C12 UNL     1      25.052   2.440  52.109  1.00  0.00    -0.050 C 
HETATM   16  C13 UNL     1      25.487   1.232  52.365  1.00  0.00     0.078 A 
HETATM   17  N4  UNL     1      26.734   0.746  51.934  1.00  0.00    -0.275 N 
HETATM   18  N5  UNL     1      27.235  -0.529  52.107  1.00  0.00    -0.168 NA
HETATM   19  C14 UNL     1      26.526  -1.405  52.723  1.00  0.00     0.255 A 
HETATM   20  N6  UNL     1      25.257  -1.022  53.194  1.00  0.00    -0.242 NA
HETATM   21  C15 UNL     1      24.707   0.163  53.069  1.00  0.00     0.074 A 
HETATM   22  C16 UNL     1      23.319   0.180  53.600  1.00  0.00     0.091 C 
HETATM   23  C17 UNL     1      23.849   3.135  52.626  1.00  0.00     0.038 C 
HETATM   24  C18 UNL     1      23.001   3.615  51.506  1.00  0.00     0.029 C 
HETATM   25  H8  UNL     1      23.672   1.576  49.201  1.00  0.00     0.159 HD
HETATM   26  H14 UNL     1      27.421   1.318  51.425  1.00  0.00     0.189 HD
ENDROOT
TORSDOF 0
ENDMDL
