ROOT
HETATM    1  C1  UNL     1      26.211   4.753  49.134  1.00  0.00     0.049 C 
HETATM    2  C2  UNL     1      25.433   4.101  50.272  1.00  0.00    -0.047 C 
HETATM    3  C3  UNL     1      25.989   2.965  50.854  1.00  0.00     0.094 C 
HETATM    4  N1  UNL     1      24.955   2.765  51.790  1.00  0.00    -0.366 N 
HETATM    5  C4  UNL     1      24.543   3.215  53.111  1.00  0.00     0.136 C 
HETATM    6  C5  UNL     1      23.174   3.466  52.444  1.00  0.00     0.070 C 
HETATM    7  C6  UNL     1      23.317   4.567  51.427  1.00  0.00    -0.016 C 
HETATM    8  C7  UNL     1      24.184   4.963  50.435  1.00  0.00     0.004 C 
HETATM    9  C8  UNL     1      23.618   2.137  51.816  1.00  0.00     0.126 C 
ENDROOT
BRANCH   9  10
HETATM   10  C9  UNL     1      22.978   2.102  50.455  1.00  0.00     0.097 C 
HETATM   11  S1  UNL     1      21.985   1.488  49.621  1.00  0.00    -0.094 SA
ENDBRANCH   9  10
BRANCH   9  12
HETATM   12  S2  UNL     1      23.452   0.674  52.667  1.00  0.00    -0.032 SA
BRANCH  12  13
HETATM   13  C10 UNL     1      24.680  -0.115  53.587  1.00  0.00     0.287 C 
HETATM   14  O1  UNL     1      25.316  -0.699  54.546  1.00  0.00    -0.260 OA
HETATM   15  N2  UNL     1      25.791  -0.191  52.648  1.00  0.00    -0.318 N 
HETATM   16  H11 UNL     1      26.033   0.084  51.639  1.00  0.00     0.169 HD
BRANCH  15  17
HETATM   17  C11 UNL     1      27.088  -0.773  52.921  1.00  0.00     0.035 A 
HETATM   18  C12 UNL     1      28.102   0.062  53.402  1.00  0.00     0.029 A 
HETATM   19  C13 UNL     1      29.349  -0.521  53.659  1.00  0.00     0.002 A 
HETATM   20  C14 UNL     1      29.602  -1.863  53.458  1.00  0.00     0.000 A 
HETATM   21  C15 UNL     1      28.578  -2.647  52.984  1.00  0.00     0.002 A 
HETATM   22  C16 UNL     1      27.313  -2.134  52.708  1.00  0.00     0.029 A 
ENDBRANCH  15  17
ENDBRANCH  12  13
ENDBRANCH   9  12
TORSDOF 4
ENDMDL
