ROOT
HETATM    1  C5  UNL     1      22.807   0.623  52.508  1.00  0.00     0.004 A 
HETATM    2  C6  UNL     1      21.435   0.514  52.725  1.00  0.00     0.030 A 
HETATM    3  C7  UNL     1      21.211  -0.219  53.863  1.00  0.00     0.119 A 
HETATM    4  N3  UNL     1      22.426  -0.541  54.316  1.00  0.00    -0.240 N 
HETATM    5  N4  UNL     1      22.637  -1.265  55.429  1.00  0.00    -0.161 NA
HETATM    6  C8  UNL     1      23.892  -1.535  55.799  1.00  0.00     0.258 A 
HETATM    7  N5  UNL     1      24.887  -1.074  55.049  1.00  0.00    -0.220 NA
HETATM    8  C9  UNL     1      24.695  -0.356  53.945  1.00  0.00     0.159 A 
HETATM    9  C16 UNL     1      23.420  -0.054  53.527  1.00  0.00     0.112 A 
ENDROOT
BRANCH   1  10
HETATM   10  C4  UNL     1      23.482   1.332  51.406  1.00  0.00     0.313 C 
BRANCH  10  11
HETATM   11  N2  UNL     1      23.065   2.729  51.452  1.00  0.00     0.092 N 
HETATM   12  C3  UNL     1      23.839   3.549  52.331  1.00  0.00     0.275 C 
HETATM   13  C2  UNL     1      23.006   4.772  52.650  1.00  0.00     0.065 C 
HETATM   14  C1  UNL     1      22.845   5.535  51.327  1.00  0.00     0.221 C 
HETATM   15  C18 UNL     1      22.148   4.636  50.353  1.00  0.00     0.065 C 
HETATM   16  C17 UNL     1      22.844   3.304  50.160  1.00  0.00     0.275 C 
BRANCH  14  17
HETATM   17  N1  UNL     1      21.988   6.692  51.518  1.00  0.00     0.083 N 
HETATM   18  H1  UNL     1      21.046   6.431  51.153  1.00  0.00     0.313 HD
HETATM   19  H2  UNL     1      22.319   7.553  51.073  1.00  0.00     0.313 HD
ENDBRANCH  14  17
ENDBRANCH  10  11
ENDBRANCH   1  10
BRANCH   8  20
HETATM   20  N6  UNL     1      25.771   0.106  53.163  1.00  0.00    -0.337 N 
HETATM   21  H13 UNL     1      25.661   0.643  52.297  1.00  0.00     0.167 HD
BRANCH  20  22
HETATM   22  C10 UNL     1      27.166  -0.053  53.336  1.00  0.00     0.067 A 
HETATM   23  C11 UNL     1      27.782  -1.249  53.047  1.00  0.00     0.032 A 
HETATM   24  C12 UNL     1      29.147  -1.475  53.188  1.00  0.00     0.002 A 
HETATM   25  C13 UNL     1      29.970  -0.490  53.633  1.00  0.00     0.003 A 
HETATM   26  C14 UNL     1      29.401   0.723  53.935  1.00  0.00     0.039 A 
HETATM   27  C15 UNL     1      28.051   0.900  53.781  1.00  0.00     0.092 A 
BRANCH  27  28
HETATM   28  O1  UNL     1      27.529   2.165  54.107  1.00  0.00    -0.358 OA
HETATM   29  H18 UNL     1      28.132   2.847  54.523  1.00  0.00     0.217 HD
ENDBRANCH  27  28
ENDBRANCH  20  22
ENDBRANCH   8  20
TORSDOF 6
ENDMDL
