ROOT
HETATM    1  N1  UNL     1      25.440   3.507  51.607  1.00  0.00    -0.324 N 
HETATM    2  C5  UNL     1      26.326   3.179  50.549  1.00  0.00     0.245 C 
HETATM    3  O2  UNL     1      26.871   2.048  50.586  1.00  0.00    -0.268 OA
HETATM    4  H5  UNL     1      24.985   4.449  51.575  1.00  0.00     0.169 HD
ENDROOT
BRANCH   1   5
HETATM    5  C4  UNL     1      25.394   2.379  52.507  1.00  0.00     0.038 A 
HETATM    6  C3  UNL     1      26.496   2.134  53.301  1.00  0.00     0.068 A 
HETATM    7  C2  UNL     1      26.521   1.079  54.185  1.00  0.00     0.100 A 
HETATM    8  C15 UNL     1      25.416   0.257  54.269  1.00  0.00     0.101 A 
HETATM    9  C14 UNL     1      24.303   0.490  53.479  1.00  0.00     0.010 A 
HETATM   10  N3  UNL     1      25.350  -0.768  55.079  1.00  0.00    -0.257 NA
HETATM   11  C13 UNL     1      24.277   1.554  52.587  1.00  0.00     0.044 A 
HETATM   12  C18 UNL     1      23.240  -0.279  53.542  1.00  0.00     0.001 C 
HETATM   13  C17 UNL     1      23.086  -1.006  54.598  1.00  0.00     0.006 C 
HETATM   14  C16 UNL     1      24.172  -1.562  55.102  1.00  0.00     0.130 C 
BRANCH   7  15
HETATM   15  O1  UNL     1      27.555   0.717  55.038  1.00  0.00    -0.353 OA
HETATM   16  C1  UNL     1      28.790   0.336  54.465  1.00  0.00     0.210 C 
ENDBRANCH   7  15
ENDBRANCH   1   5
BRANCH   2  17
HETATM   17  C6  UNL     1      26.662   4.037  49.424  1.00  0.00     0.072 C 
HETATM   18  C7  UNL     1      26.913   5.314  49.328  1.00  0.00     0.008 C 
BRANCH  18  19
HETATM   19  C8  UNL     1      27.256   6.235  48.226  1.00  0.00     0.300 C 
BRANCH  19  20
HETATM   20  N2  UNL     1      26.737   7.562  48.436  1.00  0.00     0.096 N 
HETATM   21  C9  UNL     1      27.739   8.572  48.195  1.00  0.00     0.299 C 
HETATM   22  C10 UNL     1      28.292   9.116  49.520  1.00  0.00     0.198 C 
HETATM   23  O3  UNL     1      27.315   9.597  50.355  1.00  0.00    -0.388 OA
HETATM   24  C11 UNL     1      26.035   9.187  50.021  1.00  0.00     0.198 C 
HETATM   25  C12 UNL     1      26.016   7.707  49.660  1.00  0.00     0.299 C 
ENDBRANCH  19  20
ENDBRANCH  18  19
ENDBRANCH   2  17
TORSDOF 5
ENDMDL
