ROOT
HETATM    1  C5  UNL     1      23.541   2.018  52.644  1.00  0.00     0.024 A 
HETATM    2  C6  UNL     1      24.847   1.906  53.118  1.00  0.00     0.127 A 
HETATM    3  N1  UNL     1      25.006   0.588  53.413  1.00  0.00    -0.275 N 
HETATM    4  N3  UNL     1      23.894  -0.034  53.140  1.00  0.00    -0.171 NA
HETATM    5  C12 UNL     1      22.940   0.777  52.661  1.00  0.00     0.103 A 
ENDROOT
BRANCH   1   6
HETATM    6  C4  UNL     1      23.101   3.358  52.245  1.00  0.00    -0.002 A 
HETATM    7  C3  UNL     1      24.154   4.052  51.676  1.00  0.00     0.054 A 
HETATM    8  C2  UNL     1      23.956   5.362  51.225  1.00  0.00     0.114 A 
HETATM    9  C20 UNL     1      22.698   5.918  51.367  1.00  0.00     0.154 A 
HETATM   10  N4  UNL     1      21.699   5.215  51.926  1.00  0.00    -0.240 NA
HETATM   11  C19 UNL     1      21.868   3.959  52.364  1.00  0.00     0.131 A 
BRANCH   8  12
HETATM   12  O1  UNL     1      24.862   6.216  50.636  1.00  0.00    -0.352 OA
HETATM   13  C1  UNL     1      25.667   5.708  49.585  1.00  0.00     0.210 C 
ENDBRANCH   8  12
BRANCH   9  14
HETATM   14  N5  UNL     1      22.334   7.243  50.958  1.00  0.00    -0.382 N 
HETATM   15  H19 UNL     1      21.554   7.452  50.294  1.00  0.00     0.157 HD
HETATM   16  H20 UNL     1      22.776   8.159  51.253  1.00  0.00     0.157 HD
ENDBRANCH   9  14
ENDBRANCH   1   6
BRANCH   5  17
HETATM   17  C13 UNL     1      21.563   0.591  52.220  1.00  0.00     0.042 A 
HETATM   18  C14 UNL     1      20.709   0.167  53.218  1.00  0.00     0.048 A 
HETATM   19 CL1  UNL     1      21.168  -0.151  54.881  1.00  0.00    -0.083 Cl
HETATM   20  C15 UNL     1      19.356  -0.047  52.945  1.00  0.00     0.028 A 
HETATM   21  C16 UNL     1      18.942   0.185  51.650  1.00  0.00     0.046 A 
HETATM   22  C17 UNL     1      19.772   0.609  50.631  1.00  0.00     0.139 A 
HETATM   23  F1  UNL     1      19.351   0.832  49.374  1.00  0.00    -0.204 F 
HETATM   24  C18 UNL     1      21.118   0.816  50.933  1.00  0.00     0.086 A 
HETATM   25 CL2  UNL     1      22.292   1.357  49.736  1.00  0.00    -0.080 Cl
ENDBRANCH   5  17
BRANCH   3  26
HETATM   26  C7  UNL     1      26.194  -0.035  53.942  1.00  0.00     0.113 C 
HETATM   27  C8  UNL     1      26.691  -1.169  53.074  1.00  0.00     0.057 C 
HETATM   28  C9  UNL     1      28.190  -1.076  52.893  1.00  0.00     0.271 C 
HETATM   29  N2  UNL     1      28.773  -0.961  54.208  1.00  0.00     0.083 N 
HETATM   30  C10 UNL     1      28.530   0.379  54.679  1.00  0.00     0.271 C 
HETATM   31  H11 UNL     1      28.296  -1.630  54.833  1.00  0.00     0.315 HD
HETATM   32  C11 UNL     1      27.267   1.004  54.160  1.00  0.00     0.057 C 
ENDBRANCH   3  26
TORSDOF 5
ENDMDL
