ROOT
HETATM    1  C3  UNL     1      27.293   0.384  53.760  1.00  0.00    -0.014 A 
HETATM    2  C4  UNL     1      27.435   1.216  52.668  1.00  0.00     0.022 A 
HETATM    3  C5  UNL     1      26.317   1.491  51.910  1.00  0.00    -0.035 A 
HETATM    4  C14 UNL     1      25.062   0.991  52.166  1.00  0.00     0.022 A 
HETATM    5  C15 UNL     1      24.943   0.163  53.261  1.00  0.00    -0.014 A 
HETATM    6  C18 UNL     1      26.034  -0.138  54.046  1.00  0.00     0.079 A 
ENDROOT
BRANCH   3   7
HETATM    7  C6  UNL     1      26.464   2.370  50.760  1.00  0.00     0.008 C 
HETATM    8  C7  UNL     1      26.103   3.625  50.555  1.00  0.00    -0.010 C 
BRANCH   8   9
HETATM    9  C8  UNL     1      26.277   4.489  49.351  1.00  0.00     0.138 C 
BRANCH   9  10
HETATM   10  N1  UNL     1      27.652   4.476  48.955  1.00  0.00    -0.233 NA
HETATM   11  H11 UNL     1      28.317   4.135  49.658  1.00  0.00     0.147 HD
BRANCH  10  12
HETATM   12  N2  UNL     1      28.047   5.693  48.358  1.00  0.00    -0.292 N 
HETATM   13  C9  UNL     1      27.103   6.708  48.046  1.00  0.00     0.107 A 
HETATM   14  C10 UNL     1      27.493   7.844  47.486  1.00  0.00     0.018 A 
HETATM   15  C11 UNL     1      28.893   8.051  47.192  1.00  0.00     0.002 A 
HETATM   16  C12 UNL     1      29.803   7.122  47.472  1.00  0.00     0.027 A 
HETATM   17  C13 UNL     1      29.465   5.819  48.098  1.00  0.00     0.259 A 
BRANCH  17  18
HETATM   18  O1  UNL     1      30.219   5.696  49.254  1.00  0.00    -0.372 OA
HETATM   19  H17 UNL     1      30.197   6.594  49.706  1.00  0.00     0.212 HD
ENDBRANCH  17  18
ENDBRANCH  10  12
ENDBRANCH   9  10
ENDBRANCH   8   9
ENDBRANCH   3   7
BRANCH   1  20
HETATM   20  C2  UNL     1      28.355  -0.026  54.689  1.00  0.00     0.114 C 
BRANCH  20  21
HETATM   21  S1  UNL     1      29.732  -0.857  53.864  1.00  0.00    -0.169 SA
HETATM   22  C1  UNL     1      29.111  -2.413  53.167  1.00  0.00     0.090 C 
ENDBRANCH  20  21
ENDBRANCH   1  20
BRANCH   5  23
HETATM   23  C16 UNL     1      23.607  -0.414  53.586  1.00  0.00     0.114 C 
BRANCH  23  24
HETATM   24  S2  UNL     1      22.282   0.771  53.185  1.00  0.00    -0.169 SA
HETATM   25  C17 UNL     1      21.259   0.158  51.839  1.00  0.00     0.090 C 
ENDBRANCH  23  24
ENDBRANCH   5  23
BRANCH   6  26
HETATM   26  O2  UNL     1      25.813  -0.993  55.143  1.00  0.00    -0.360 OA
HETATM   27  H24 UNL     1      24.875  -1.314  55.344  1.00  0.00     0.217 HD
ENDBRANCH   6  26
TORSDOF 10
ENDMDL
