ROOT
HETATM    1  C2  UNL     1      22.691  -0.908  53.529  1.00  0.00     0.148 C 
HETATM    2  C3  UNL     1      23.652  -0.009  53.198  1.00  0.00     0.021 C 
HETATM    3  C4  UNL     1      25.018  -0.133  53.786  1.00  0.00     0.040 C 
HETATM    4  P1  UNL     1      25.675   1.327  53.948  1.00  0.00    -0.010 P 
HETATM    5  N1  UNL     1      27.370   1.349  54.301  1.00  0.00    -0.359 N 
HETATM    6  C5  UNL     1      28.239   1.932  53.340  1.00  0.00     0.209 A 
HETATM    7  N2  UNL     1      27.907   2.416  52.213  1.00  0.00    -0.219 NA
HETATM    8  C6  UNL     1      26.628   2.496  51.656  1.00  0.00     0.183 A 
HETATM    9  C13 UNL     1      25.549   2.057  52.286  1.00  0.00     0.040 A 
HETATM   10  C14 UNL     1      24.171   2.004  51.831  1.00  0.00     0.055 C 
HETATM   11  C15 UNL     1      23.308   1.051  52.257  1.00  0.00     0.081 C 
HETATM   12  H6  UNL     1      24.945   2.140  54.854  1.00  0.00     0.083 HD
HETATM   13  H7  UNL     1      27.968   1.033  55.073  1.00  0.00     0.165 HD
ENDROOT
BRANCH   8  14
HETATM   14  O2  UNL     1      26.250   2.990  50.468  1.00  0.00    -0.291 OA
BRANCH  14  15
HETATM   15  C7  UNL     1      26.405   4.163  49.829  1.00  0.00     0.079 A 
HETATM   16  C8  UNL     1      27.404   4.498  48.939  1.00  0.00     0.037 A 
HETATM   17  C9  UNL     1      27.438   5.747  48.358  1.00  0.00     0.004 A 
HETATM   18  C10 UNL     1      26.438   6.630  48.705  1.00  0.00     0.019 A 
HETATM   19  C11 UNL     1      25.380   6.384  49.599  1.00  0.00     0.013 A 
HETATM   20 BR1  UNL     1      24.041   7.628  50.047  1.00  0.00    -0.051 Br
HETATM   21  C12 UNL     1      25.437   5.087  50.135  1.00  0.00     0.056 A 
ENDBRANCH  14  15
ENDBRANCH   8  14
BRANCH  11  22
HETATM   22  O3  UNL     1      22.079   1.253  51.658  1.00  0.00    -0.355 OA
HETATM   23  C16 UNL     1      21.983   1.388  50.234  1.00  0.00     0.210 C 
ENDBRANCH  11  22
BRANCH   1  24
HETATM   24  O1  UNL     1      21.420  -0.825  53.007  1.00  0.00    -0.367 OA
HETATM   25  C1  UNL     1      20.254  -0.828  53.795  1.00  0.00     0.208 C 
ENDBRANCH   1  24
TORSDOF 4
ENDMDL
