ROOT
HETATM    1  C2  UNL     1      26.468   0.811  54.383  1.00  0.00     0.080 A 
HETATM    2  C3  UNL     1      26.091   1.927  53.782  1.00  0.00     0.069 A 
HETATM    3  C4  UNL     1      24.791   1.927  53.124  1.00  0.00     0.092 A 
HETATM    4  N1  UNL     1      24.293   2.914  52.509  1.00  0.00    -0.145 NA
HETATM    5  N2  UNL     1      23.040   2.870  51.891  1.00  0.00    -0.140 N 
HETATM    6  C6  UNL     1      22.174   1.701  51.884  1.00  0.00     0.062 A 
HETATM    7  C15 UNL     1      22.710   0.708  52.521  1.00  0.00     0.043 A 
HETATM    8  C16 UNL     1      24.007   0.704  53.178  1.00  0.00    -0.004 A 
HETATM    9  C17 UNL     1      24.434  -0.370  53.790  1.00  0.00     0.025 A 
HETATM   10  C18 UNL     1      25.732  -0.472  54.483  1.00  0.00     0.198 A 
ENDROOT
BRANCH   6  11
HETATM   11  C7  UNL     1      20.957   1.970  51.166  1.00  0.00     0.066 C 
BRANCH  11  12
HETATM   12  C8  UNL     1      20.150   0.908  50.570  1.00  0.00     0.044 C 
BRANCH  12  13
HETATM   13  C9  UNL     1      19.153   0.208  51.357  1.00  0.00    -0.058 A 
HETATM   14  C10 UNL     1      19.138  -0.392  52.597  1.00  0.00     0.007 A 
HETATM   15  C11 UNL     1      18.064  -1.041  53.162  1.00  0.00     0.001 A 
HETATM   16  C12 UNL     1      16.876  -1.125  52.467  1.00  0.00     0.000 A 
HETATM   17  C13 UNL     1      16.808  -0.549  51.217  1.00  0.00     0.001 A 
HETATM   18  C14 UNL     1      17.914   0.087  50.703  1.00  0.00     0.007 A 
ENDBRANCH  12  13
ENDBRANCH  11  12
ENDBRANCH   6  11
BRANCH   5  19
HETATM   19  O2  UNL     1      22.755   4.079  51.302  1.00  0.00    -0.237 OA
BRANCH  19  20
HETATM   20  C5  UNL     1      22.735   4.994  52.351  1.00  0.00     0.319 C 
BRANCH  20  21
HETATM   21  N3  UNL     1      23.887   5.875  52.322  1.00  0.00    -0.409 N 
HETATM   22  H7  UNL     1      24.589   5.654  53.034  1.00  0.00     0.152 HD
HETATM   23  H8  UNL     1      24.230   6.083  51.369  1.00  0.00     0.152 HD
ENDBRANCH  20  21
ENDBRANCH  19  20
ENDBRANCH   5  19
BRANCH  10  24
HETATM   24  O3  UNL     1      25.614  -0.917  55.796  1.00  0.00    -0.385 OA
HETATM   25  H21 UNL     1      26.255  -0.413  56.355  1.00  0.00     0.210 HD
ENDBRANCH  10  24
BRANCH   1  26
HETATM   26  O1  UNL     1      27.695   0.736  55.031  1.00  0.00    -0.357 OA
HETATM   27  C1  UNL     1      28.791   0.005  54.489  1.00  0.00     0.209 C 
ENDBRANCH   1  26
TORSDOF 8
ENDMDL
