ROOT
HETATM    1  C4  UNL     1      26.898   0.534  52.167  1.00  0.00     0.095 C 
HETATM    2  C5  UNL     1      26.062   1.511  52.314  1.00  0.00     0.019 C 
HETATM    3  C6  UNL     1      25.004   1.205  53.349  1.00  0.00     0.073 C 
HETATM    4  C7  UNL     1      23.678   1.041  52.575  1.00  0.00     0.005 C 
HETATM    5  C8  UNL     1      23.325   1.687  51.486  1.00  0.00     0.034 A 
HETATM    6  C9  UNL     1      23.568   2.656  50.452  1.00  0.00     0.118 A 
HETATM    7  C10 UNL     1      23.956   3.661  49.657  1.00  0.00     0.064 A 
HETATM    8  C11 UNL     1      25.008   4.627  50.249  1.00  0.00     0.139 C 
HETATM    9  N1  UNL     1      25.140   3.948  51.580  1.00  0.00    -0.356 N 
HETATM   10  C12 UNL     1      25.789   2.691  51.553  1.00  0.00     0.248 C 
HETATM   11  O3  UNL     1      26.290   2.477  50.438  1.00  0.00    -0.268 OA
HETATM   12  C13 UNL     1      22.976   2.902  48.898  1.00  0.00     0.234 A 
HETATM   13  F1  UNL     1      23.082   3.744  47.784  1.00  0.00    -0.214 F 
HETATM   14  N2  UNL     1      22.327   1.867  49.235  1.00  0.00    -0.170 NA
HETATM   15  N3  UNL     1      22.412   1.204  50.439  1.00  0.00    -0.283 N 
HETATM   16  H13 UNL     1      25.034   3.861  52.598  1.00  0.00     0.162 HD
HETATM   17  H14 UNL     1      21.824   0.316  50.639  1.00  0.00     0.188 HD
ENDROOT
BRANCH   1  18
HETATM   18  C3  UNL     1      26.809  -0.675  52.904  1.00  0.00     0.283 C 
HETATM   19  O2  UNL     1      26.552  -1.805  53.348  1.00  0.00    -0.260 OA
BRANCH  18  20
HETATM   20  O1  UNL     1      27.603  -0.697  54.033  1.00  0.00    -0.319 OA
BRANCH  20  21
HETATM   21  C2  UNL     1      28.858  -0.096  54.158  1.00  0.00     0.174 C 
HETATM   22  C1  UNL     1      29.987  -0.947  53.648  1.00  0.00     0.034 C 
ENDBRANCH  20  21
ENDBRANCH  18  20
ENDBRANCH   1  18
TORSDOF 3
ENDMDL
