ROOT
HETATM    1  C7  UNL     1      25.038   1.559  53.338  1.00  0.00     0.069 A 
HETATM    2  C8  UNL     1      23.679   1.617  52.998  1.00  0.00     0.047 A 
HETATM    3  C9  UNL     1      22.856   0.564  53.339  1.00  0.00     0.005 A 
HETATM    4  C10 UNL     1      21.513   0.537  53.073  1.00  0.00     0.005 A 
HETATM    5  C12 UNL     1      20.797  -0.578  53.499  1.00  0.00     0.071 A 
HETATM    6  C13 UNL     1      19.386  -0.631  53.239  1.00  0.00     0.101 C 
HETATM    7  N3  UNL     1      18.240  -0.689  53.025  1.00  0.00    -0.191 NA
HETATM    8  C14 UNL     1      21.433  -1.608  54.159  1.00  0.00     0.140 A 
HETATM    9  N4  UNL     1      22.775  -1.565  54.416  1.00  0.00    -0.259 NA
HETATM   10  C15 UNL     1      23.479  -0.471  54.001  1.00  0.00     0.070 A 
HETATM   11  C16 UNL     1      24.811  -0.554  54.346  1.00  0.00     0.071 A 
HETATM   12  C17 UNL     1      25.623   0.503  54.002  1.00  0.00     0.101 A 
ENDROOT
BRANCH   4  13
HETATM   13  C11 UNL     1      20.879   1.668  52.363  1.00  0.00     0.263 C 
HETATM   14  F1  UNL     1      20.382   2.640  53.195  1.00  0.00    -0.251 F 
ENDBRANCH   4  13
BRANCH   1  15
HETATM   15  N2  UNL     1      25.765   2.738  52.924  1.00  0.00    -0.321 N 
HETATM   16  C6  UNL     1      25.994   2.465  51.548  1.00  0.00     0.245 C 
HETATM   17  O1  UNL     1      25.499   1.331  51.189  1.00  0.00    -0.268 OA
HETATM   18  H11 UNL     1      26.209   3.667  53.068  1.00  0.00     0.169 HD
BRANCH  16  19
HETATM   19  C5  UNL     1      26.608   3.013  50.358  1.00  0.00     0.072 C 
HETATM   20  C4  UNL     1      25.997   4.168  50.104  1.00  0.00     0.008 C 
BRANCH  20  21
HETATM   21  C3  UNL     1      26.329   5.024  48.976  1.00  0.00     0.299 C 
BRANCH  21  22
HETATM   22  N1  UNL     1      25.393   6.144  48.853  1.00  0.00     0.083 N 
HETATM   23  C1  UNL     1      24.016   5.629  48.869  1.00  0.00     0.309 C 
HETATM   24  C2  UNL     1      25.491   6.918  50.113  1.00  0.00     0.309 C 
ENDBRANCH  21  22
ENDBRANCH  20  21
ENDBRANCH  16  19
ENDBRANCH   1  15
BRANCH  12  25
HETATM   25  O2  UNL     1      26.972   0.632  54.248  1.00  0.00    -0.319 OA
BRANCH  25  26
HETATM   26  C18 UNL     1      27.839  -0.293  53.644  1.00  0.00     0.398 C 
HETATM   27  F2  UNL     1      27.416  -0.612  52.355  1.00  0.00    -0.227 F 
ENDBRANCH  25  26
ENDBRANCH  12  25
TORSDOF 7
ENDMDL
