ROOT
HETATM    1  S1  UNL     1      24.448   1.892  52.567  1.00  0.00     0.303 S 
HETATM    2  O3  UNL     1      24.585   3.207  53.268  1.00  0.00    -0.193 OA
HETATM    3  O4  UNL     1      23.294   1.091  53.088  1.00  0.00    -0.193 OA
ENDROOT
BRANCH   1   4
HETATM    4  O2  UNL     1      24.253   2.192  50.899  1.00  0.00    -0.229 OA
BRANCH   4   5
HETATM    5  C5  UNL     1      24.948   3.225  50.281  1.00  0.00     0.089 A 
HETATM    6  C4  UNL     1      24.357   4.448  50.016  1.00  0.00     0.041 A 
HETATM    7  C3  UNL     1      25.031   5.470  49.408  1.00  0.00     0.039 A 
HETATM    8  C2  UNL     1      26.345   5.297  49.039  1.00  0.00     0.068 A 
HETATM    9  C14 UNL     1      26.935   4.066  49.308  1.00  0.00     0.039 A 
HETATM   10  C13 UNL     1      26.279   3.020  49.919  1.00  0.00     0.041 A 
BRANCH   8  11
HETATM   11  O1  UNL     1      27.189   6.210  48.417  1.00  0.00    -0.356 OA
HETATM   12  C1  UNL     1      28.567   5.996  48.261  1.00  0.00     0.210 C 
ENDBRANCH   8  11
ENDBRANCH   4   5
ENDBRANCH   1   4
BRANCH   1  13
HETATM   13  C6  UNL     1      25.903   0.982  52.833  1.00  0.00     0.086 A 
HETATM   14  C7  UNL     1      25.860  -0.402  52.695  1.00  0.00     0.027 A 
HETATM   15  C8  UNL     1      27.030  -1.101  52.912  1.00  0.00     0.016 A 
HETATM   16  C9  UNL     1      28.244  -0.537  53.258  1.00  0.00     0.002 A 
HETATM   17  C11 UNL     1      28.269   0.851  53.393  1.00  0.00     0.016 A 
HETATM   18  C12 UNL     1      27.112   1.573  53.181  1.00  0.00     0.027 A 
BRANCH  16  19
HETATM   19  C10 UNL     1      29.433  -1.363  53.469  1.00  0.00     0.269 C 
HETATM   20  O5  UNL     1      29.219  -2.600  53.418  1.00  0.00    -0.301 OA
ENDBRANCH  16  19
ENDBRANCH   1  13
TORSDOF 5
ENDMDL
