ROOT
HETATM    1  C1  UNL     1      23.028   2.108  48.242  1.00  0.00     0.042 C 
HETATM    2  C2  UNL     1      22.480   3.125  49.009  1.00  0.00     0.152 A 
HETATM    3  O1  UNL     1      23.399   4.466  48.868  1.00  0.00    -0.366 OA
HETATM    4  C3  UNL     1      23.910   4.377  50.346  1.00  0.00     0.110 A 
HETATM    5  C4  UNL     1      24.943   3.580  49.748  1.00  0.00     0.097 A 
HETATM    6  C5  UNL     1      25.521   3.045  50.866  1.00  0.00     0.034 A 
HETATM    7  C6  UNL     1      24.464   3.861  51.375  1.00  0.00     0.077 A 
HETATM    8  C7  UNL     1      23.572   4.540  52.191  1.00  0.00     0.002 A 
HETATM    9  C8  UNL     1      22.968   5.101  51.072  1.00  0.00    -0.019 A 
HETATM   10  C12 UNL     1      23.139   2.953  50.606  1.00  0.00     0.109 A 
HETATM   11  N2  UNL     1      22.251   1.930  51.051  1.00  0.00    -0.374 N 
HETATM   12  C13 UNL     1      22.342   1.007  52.116  1.00  0.00     0.031 A 
HETATM   13  C14 UNL     1      21.214   0.539  52.740  1.00  0.00     0.029 A 
HETATM   14  C15 UNL     1      21.194  -0.328  53.808  1.00  0.00     0.005 A 
HETATM   15  C16 UNL     1      22.382  -0.792  54.332  1.00  0.00     0.037 A 
HETATM   16  C17 UNL     1      23.564  -0.393  53.794  1.00  0.00     0.071 A 
HETATM   17  C18 UNL     1      23.469   0.490  52.704  1.00  0.00     0.065 A 
HETATM   18  O2  UNL     1      24.930  -0.372  53.725  1.00  0.00    -0.347 OA
HETATM   19  C19 UNL     1      25.757  -0.895  52.742  1.00  0.00     0.215 C 
HETATM   20  C20 UNL     1      27.173  -0.539  53.014  1.00  0.00    -0.026 A 
HETATM   21  C21 UNL     1      28.133  -1.488  53.242  1.00  0.00     0.010 A 
HETATM   22  C22 UNL     1      29.451  -1.164  53.473  1.00  0.00     0.001 A 
HETATM   23  C23 UNL     1      29.830   0.172  53.478  1.00  0.00     0.001 A 
HETATM   24  C24 UNL     1      28.818   1.073  53.243  1.00  0.00     0.009 A 
HETATM   25  C25 UNL     1      27.458   0.829  53.000  1.00  0.00    -0.030 A 
HETATM   26  C26 UNL     1      26.625   2.045  52.801  1.00  0.00     0.187 C 
HETATM   27  N3  UNL     1      26.418   2.297  51.411  1.00  0.00    -0.292 NA
HETATM   28  H15 UNL     1      21.398   1.876  50.515  1.00  0.00     0.160 HD
ENDROOT
BRANCH   9  29
HETATM   29  C9  UNL     1      21.867   6.000  51.617  1.00  0.00     0.308 C 
BRANCH  29  30
HETATM   30  N1  UNL     1      21.852   7.155  50.762  1.00  0.00     0.083 N 
HETATM   31  C10 UNL     1      21.288   6.882  49.456  1.00  0.00     0.309 C 
HETATM   32  C11 UNL     1      23.184   7.698  50.556  1.00  0.00     0.309 C 
ENDBRANCH  29  30
ENDBRANCH   9  29
TORSDOF 2
ENDMDL
