ROOT
HETATM    1  C7  UNL     1      25.078   0.224  53.762  1.00  0.00     0.171 A 
HETATM    2  C8  UNL     1      24.970   1.282  52.908  1.00  0.00     0.087 A 
HETATM    3  C9  UNL     1      23.756   1.454  52.231  1.00  0.00     0.033 A 
HETATM    4  C17 UNL     1      22.783   0.518  52.506  1.00  0.00     0.048 A 
HETATM    5  C18 UNL     1      22.923  -0.542  53.377  1.00  0.00     0.122 A 
HETATM    6  N2  UNL     1      24.104  -0.667  54.002  1.00  0.00    -0.237 NA
ENDROOT
BRANCH   3   7
HETATM    7  N1  UNL     1      23.504   2.513  51.327  1.00  0.00    -0.386 N 
HETATM    8  H7  UNL     1      23.198   3.383  51.842  1.00  0.00     0.160 HD
BRANCH   7   9
HETATM    9  C10 UNL     1      23.548   2.747  49.903  1.00  0.00     0.158 C 
BRANCH   9  10
HETATM   10  C11 UNL     1      24.765   3.511  49.574  1.00  0.00    -0.041 A 
HETATM   11  C12 UNL     1      26.110   3.230  49.631  1.00  0.00     0.009 A 
HETATM   12  C13 UNL     1      27.054   4.145  49.277  1.00  0.00     0.001 A 
HETATM   13  C14 UNL     1      26.739   5.411  48.837  1.00  0.00     0.000 A 
HETATM   14  C15 UNL     1      25.399   5.725  48.768  1.00  0.00     0.001 A 
HETATM   15  C16 UNL     1      24.425   4.788  49.130  1.00  0.00     0.009 A 
ENDBRANCH   9  10
ENDBRANCH   7   9
ENDBRANCH   3   7
BRANCH   1  16
HETATM   16  O1  UNL     1      26.317   0.140  54.383  1.00  0.00    -0.295 OA
BRANCH  16  17
HETATM   17  C6  UNL     1      27.445   0.022  53.583  1.00  0.00     0.070 C 
HETATM   18  C1  UNL     1      27.650  -1.174  53.075  1.00  0.00     0.007 C 
HETATM   19  C2  UNL     1      28.859  -1.710  53.129  1.00  0.00     0.014 C 
HETATM   20  C3  UNL     1      29.933  -0.915  53.726  1.00  0.00    -0.003 C 
HETATM   21  C4  UNL     1      29.786   0.412  53.743  1.00  0.00    -0.020 C 
HETATM   22  C5  UNL     1      28.524   0.958  53.141  1.00  0.00     0.093 C 
ENDBRANCH  16  17
ENDBRANCH   1  16
TORSDOF 5
ENDMDL
