ROOT
HETATM    1  C4  UNL     1      25.638   1.143  53.272  1.00  0.00     0.080 C 
HETATM    2  C5  UNL     1      25.063   2.314  52.945  1.00  0.00     0.036 C 
HETATM    3  C6  UNL     1      23.633   2.686  52.872  1.00  0.00     0.041 C 
HETATM    4  C7  UNL     1      22.675   1.790  52.699  1.00  0.00     0.106 C 
HETATM    5  F1  UNL     1      21.474   2.395  52.671  1.00  0.00    -0.210 F 
HETATM    6  C8  UNL     1      22.561   0.339  52.534  1.00  0.00     0.110 C 
HETATM    7  C15 UNL     1      23.620  -0.342  53.322  1.00  0.00     0.034 C 
HETATM    8  C16 UNL     1      24.869  -0.056  53.644  1.00  0.00     0.141 C 
HETATM    9  F2  UNL     1      25.562  -0.950  54.410  1.00  0.00    -0.204 F 
ENDROOT
BRANCH   6  10
HETATM   10  C9  UNL     1      21.220  -0.159  52.896  1.00  0.00    -0.001 A 
HETATM   11  C10 UNL     1      20.643  -0.938  53.807  1.00  0.00     0.108 A 
HETATM   12  N2  UNL     1      19.327  -0.788  53.307  1.00  0.00    -0.316 N 
HETATM   13  C11 UNL     1      17.923  -1.013  53.288  1.00  0.00     0.210 A 
HETATM   14  C14 UNL     1      19.900   0.051  52.313  1.00  0.00     0.048 A 
HETATM   15  N3  UNL     1      17.062  -0.540  52.458  1.00  0.00    -0.260 NA
HETATM   16  C12 UNL     1      17.548   0.327  51.407  1.00  0.00     0.230 A 
HETATM   17 CL1  UNL     1      17.042  -0.408  49.853  1.00  0.00    -0.096 Cl
HETATM   18  C13 UNL     1      19.012   0.533  51.463  1.00  0.00     0.046 A 
ENDBRANCH   6  10
BRANCH   1  19
HETATM   19  N1  UNL     1      27.039   1.035  53.269  1.00  0.00    -0.282 N 
HETATM   20  H8  UNL     1      26.989   0.849  52.231  1.00  0.00     0.178 HD
BRANCH  19  21
HETATM   21  S1  UNL     1      28.534   1.078  54.114  1.00  0.00     0.231 S 
HETATM   22  O1  UNL     1      28.331   0.480  55.454  1.00  0.00    -0.206 OA
HETATM   23  O2  UNL     1      29.010   2.499  54.300  1.00  0.00    -0.206 OA
BRANCH  21  24
HETATM   24  C3  UNL     1      29.824   0.192  53.288  1.00  0.00     0.163 C 
BRANCH  24  25
HETATM   25  C2  UNL     1      29.937  -1.212  53.799  1.00  0.00     0.012 C 
HETATM   26  C1  UNL     1      28.936  -2.131  53.133  1.00  0.00     0.006 C 
ENDBRANCH  24  25
ENDBRANCH  21  24
ENDBRANCH  19  21
ENDBRANCH   1  19
TORSDOF 5
ENDMDL
