ROOT
HETATM    1  C7  UNL     1      24.398   2.520  52.070  1.00  0.00     0.141 A 
HETATM    2  N2  UNL     1      24.755   3.378  51.100  1.00  0.00    -0.224 NA
HETATM    3  C8  UNL     1      26.005   3.332  50.553  1.00  0.00     0.236 A 
HETATM    4  N3  UNL     1      26.890   2.397  51.009  1.00  0.00    -0.241 NA
HETATM    5  C9  UNL     1      26.515   1.545  51.983  1.00  0.00     0.075 A 
HETATM    6  C10 UNL     1      27.474   0.626  52.388  1.00  0.00     0.072 A 
HETATM    7  C11 UNL     1      27.101  -0.254  53.387  1.00  0.00     0.103 A 
HETATM    8  C13 UNL     1      25.845  -0.231  53.958  1.00  0.00     0.102 A 
HETATM    9  C15 UNL     1      24.895   0.685  53.551  1.00  0.00     0.057 A 
HETATM   10  C16 UNL     1      25.262   1.562  52.557  1.00  0.00     0.042 A 
ENDROOT
BRANCH   1  11
HETATM   11  N1  UNL     1      23.085   2.646  52.574  1.00  0.00    -0.344 N 
HETATM   12  H9  UNL     1      22.689   3.196  53.337  1.00  0.00     0.167 HD
BRANCH  11  13
HETATM   13  C5  UNL     1      22.032   1.903  51.972  1.00  0.00     0.007 C 
HETATM   14  C4  UNL     1      20.914   1.660  52.677  1.00  0.00     0.029 C 
HETATM   15  C6  UNL     1      22.075   1.355  50.573  1.00  0.00     0.068 C 
BRANCH  14  16
HETATM   16  C3  UNL     1      19.833   0.899  52.066  1.00  0.00     0.065 C 
HETATM   17  C2  UNL     1      19.362  -0.157  52.686  1.00  0.00     0.179 C 
BRANCH  17  18
HETATM   18  O1  UNL     1      20.114  -0.233  53.850  1.00  0.00    -0.336 OA
HETATM   19  C1  UNL     1      20.828  -1.391  54.220  1.00  0.00     0.212 C 
ENDBRANCH  17  18
BRANCH  17  20
HETATM   20  O4  UNL     1      18.353  -0.969  52.242  1.00  0.00    -0.336 OA
HETATM   21  C17 UNL     1      17.246  -1.261  53.070  1.00  0.00     0.212 C 
ENDBRANCH  17  20
ENDBRANCH  14  16
ENDBRANCH  11  13
ENDBRANCH   1  11
BRANCH   8  22
HETATM   22  O3  UNL     1      25.544  -1.133  54.943  1.00  0.00    -0.353 OA
HETATM   23  C14 UNL     1      24.281  -1.296  55.517  1.00  0.00     0.210 C 
ENDBRANCH   8  22
BRANCH   7  24
HETATM   24  O2  UNL     1      28.031  -1.195  53.827  1.00  0.00    -0.353 OA
HETATM   25  C12 UNL     1      29.398  -0.816  53.774  1.00  0.00     0.210 C 
ENDBRANCH   7  24
TORSDOF 7
ENDMDL
