ROOT
HETATM    1  C6  UNL     1      26.856   6.335  48.941  1.00  0.00     0.057 C 
HETATM    2  C7  UNL     1      27.257   5.091  48.707  1.00  0.00     0.026 C 
HETATM    3  C8  UNL     1      26.656   3.840  49.297  1.00  0.00     0.003 C 
HETATM    4  C9  UNL     1      25.863   3.029  50.001  1.00  0.00     0.137 C 
HETATM    5  N1  UNL     1      24.725   3.025  50.899  1.00  0.00    -0.332 N 
HETATM    6  C10 UNL     1      23.381   2.936  50.327  1.00  0.00     0.244 C 
HETATM    7  O1  UNL     1      23.451   2.819  49.053  1.00  0.00    -0.271 OA
HETATM    8  C11 UNL     1      22.034   2.968  51.026  1.00  0.00     0.271 C 
HETATM    9  O2  UNL     1      22.168   3.632  52.240  1.00  0.00    -0.369 OA
HETATM   10  C12 UNL     1      23.407   4.178  52.453  1.00  0.00     0.186 C 
HETATM   11  C13 UNL     1      23.774   5.274  51.493  1.00  0.00     0.143 C 
HETATM   12  N2  UNL     1      23.729   6.158  50.545  1.00  0.00    -0.077 NA
HETATM   13  C14 UNL     1      24.858   7.013  50.214  1.00  0.00     0.720 C 
HETATM   14  N4  UNL     1      25.961   7.093  49.654  1.00  0.00    -0.068 NA
HETATM   15  C15 UNL     1      24.528   3.131  52.362  1.00  0.00     0.123 C 
ENDROOT
BRANCH  15  16
HETATM   16  C16 UNL     1      24.484   1.939  53.137  1.00  0.00     0.058 C 
BRANCH  16  17
HETATM   17  C17 UNL     1      25.428   0.816  53.002  1.00  0.00     0.274 C 
BRANCH  17  18
HETATM   18  N5  UNL     1      26.626   1.170  53.754  1.00  0.00     0.092 N 
HETATM   19  C18 UNL     1      27.033   0.149  54.658  1.00  0.00     0.298 C 
HETATM   20  C19 UNL     1      28.541   0.252  54.937  1.00  0.00     0.198 C 
HETATM   21  O3  UNL     1      28.833   1.612  55.009  1.00  0.00    -0.388 OA
HETATM   22  C20 UNL     1      28.870   2.093  53.697  1.00  0.00     0.198 C 
HETATM   23  C21 UNL     1      27.677   1.642  52.892  1.00  0.00     0.298 C 
ENDBRANCH  17  18
ENDBRANCH  16  17
ENDBRANCH  15  16
BRANCH  13  24
HETATM   24  N3  UNL     1      24.568   8.304  50.770  1.00  0.00    -0.231 N 
HETATM   25  H15 UNL     1      24.956   9.214  50.398  1.00  0.00     0.174 HD
HETATM   26  H16 UNL     1      23.929   8.334  51.598  1.00  0.00     0.174 HD
ENDBRANCH  13  24
BRANCH   1  27
HETATM   27  C5  UNL     1      27.625   7.377  48.225  1.00  0.00     0.090 C 
BRANCH  27  28
HETATM   28  C4  UNL     1      29.065   6.953  48.195  1.00  0.00     0.020 C 
HETATM   29  C3  UNL     1      30.203   7.416  48.683  1.00  0.00     0.123 C 
HETATM   30  F2  UNL     1      29.800   8.547  49.350  1.00  0.00    -0.208 F 
BRANCH  29  31
HETATM   31  C2  UNL     1      31.670   7.461  48.957  1.00  0.00     0.227 C 
HETATM   32  C1  UNL     1      32.400   8.131  47.836  1.00  0.00     0.052 C 
HETATM   33  F1  UNL     1      31.905   8.190  50.129  1.00  0.00    -0.242 F 
ENDBRANCH  29  31
ENDBRANCH  27  28
ENDBRANCH   1  27
TORSDOF 7
ENDMDL
