ROOT
HETATM    1  C1  UNL     1      29.785  -0.853  53.760  1.00  0.00     0.014 C 
HETATM    2  C2  UNL     1      28.728  -1.237  53.285  1.00  0.00    -0.091 C 
HETATM    3  C3  UNL     1      27.460  -1.708  52.699  1.00  0.00     0.268 C 
ENDROOT
BRANCH   3   4
HETATM    4  O1  UNL     1      26.349  -0.990  53.169  1.00  0.00    -0.337 OA
BRANCH   4   5
HETATM    5  C4  UNL     1      26.067   0.249  52.594  1.00  0.00     0.099 A 
HETATM    6  C5  UNL     1      26.801   0.899  51.620  1.00  0.00     0.071 A 
HETATM    7  C6  UNL     1      26.230   2.098  51.272  1.00  0.00     0.075 A 
HETATM    8  N1  UNL     1      26.822   2.834  50.315  1.00  0.00    -0.241 NA
HETATM    9  C9  UNL     1      25.074   2.562  51.843  1.00  0.00     0.042 A 
HETATM   10  C7  UNL     1      26.285   4.005  49.924  1.00  0.00     0.236 A 
HETATM   11  N2  UNL     1      25.134   4.483  50.475  1.00  0.00    -0.223 NA
HETATM   12  C8  UNL     1      24.537   3.757  51.431  1.00  0.00     0.149 A 
HETATM   13  N4  UNL     1      23.323   4.302  51.899  1.00  0.00    -0.299 N 
HETATM   14  C20 UNL     1      22.266   3.468  51.746  1.00  0.00     0.017 C 
HETATM   15  H12 UNL     1      23.264   5.253  52.315  1.00  0.00     0.178 HD
HETATM   16  C19 UNL     1      21.362   2.776  51.628  1.00  0.00    -0.052 C 
HETATM   17  C18 UNL     1      20.273   1.962  51.505  1.00  0.00     0.110 C 
HETATM   18  C17 UNL     1      19.826   0.873  52.018  1.00  0.00     0.142 C 
HETATM   19  C16 UNL     1      19.990  -0.200  52.923  1.00  0.00     0.057 A 
HETATM   20  F1  UNL     1      18.619   0.606  51.413  1.00  0.00    -0.204 F 
HETATM   21  C15 UNL     1      20.466  -0.992  53.816  1.00  0.00     0.141 A 
HETATM   22 CL1  UNL     1      18.830  -1.363  53.526  1.00  0.00    -0.169 Cl
HETATM   23  C14 UNL     1      21.499  -1.501  54.659  1.00  0.00     0.004 C 
HETATM   24  C13 UNL     1      22.615  -1.738  55.267  1.00  0.00     0.072 C 
HETATM   25  C12 UNL     1      23.883  -1.120  55.075  1.00  0.00     0.245 C 
HETATM   26  N3  UNL     1      24.382  -0.223  54.144  1.00  0.00    -0.321 N 
HETATM   27  O2  UNL     1      24.991  -1.114  55.629  1.00  0.00    -0.268 OA
HETATM   28  C11 UNL     1      24.899   0.703  53.184  1.00  0.00     0.069 A 
HETATM   29  H7  UNL     1      23.687  -0.322  53.410  1.00  0.00     0.169 HD
HETATM   30  C10 UNL     1      24.353   1.927  52.804  1.00  0.00     0.050 A 
ENDBRANCH   4   5
ENDBRANCH   3   4
TORSDOF 2
ENDMDL
