ROOT
HETATM    1  C5  UNL     1      25.778   1.002  52.179  1.00  0.00    -0.053 C 
HETATM    2  C6  UNL     1      24.548   0.885  52.679  1.00  0.00    -0.019 C 
HETATM    3  C7  UNL     1      23.158   1.097  53.029  1.00  0.00     0.029 C 
HETATM    4  C8  UNL     1      22.217   0.157  52.369  1.00  0.00     0.023 C 
HETATM    5  C9  UNL     1      22.033   0.693  50.946  1.00  0.00     0.123 C 
HETATM    6  N2  UNL     1      21.459   2.068  51.088  1.00  0.00    -0.383 N 
HETATM    7  C10 UNL     1      20.287   2.173  51.921  1.00  0.00     0.148 C 
HETATM    8  C11 UNL     1      19.526   3.443  51.806  1.00  0.00     0.187 C 
HETATM    9  O1  UNL     1      20.286   4.520  51.356  1.00  0.00    -0.384 OA
HETATM   10  C12 UNL     1      20.892   4.183  50.124  1.00  0.00     0.220 C 
HETATM   11  C13 UNL     1      21.986   3.263  50.469  1.00  0.00     0.017 C 
HETATM   12  C14 UNL     1      23.080   3.860  50.077  1.00  0.00     0.070 C 
HETATM   13  C15 UNL     1      24.454   4.166  49.795  1.00  0.00     0.003 C 
HETATM   14  C16 UNL     1      25.765   3.927  49.798  1.00  0.00     0.004 C 
HETATM   15 BR1  UNL     1      26.561   5.446  48.905  1.00  0.00    -0.052 Br
HETATM   16  C17 UNL     1      26.585   2.930  50.438  1.00  0.00     0.002 C 
HETATM   17  C18 UNL     1      25.859   2.123  51.259  1.00  0.00     0.054 C 
ENDROOT
BRANCH   1  18
HETATM   18  C4  UNL     1      26.762  -0.055  52.525  1.00  0.00     0.008 C 
HETATM   19  C3  UNL     1      27.915   0.135  53.108  1.00  0.00     0.010 C 
BRANCH  19  20
HETATM   20  C2  UNL     1      28.852  -0.960  53.428  1.00  0.00     0.076 C 
BRANCH  20  21
HETATM   21  C1  UNL     1      28.660  -2.220  53.088  1.00  0.00    -0.025 C 
BRANCH  21  22
HETATM   22  N1  UNL     1      28.552  -3.505  53.094  1.00  0.00    -0.258 NA
HETATM   23  H1  UNL     1      27.764  -3.900  53.688  1.00  0.00     0.197 HD
ENDBRANCH  21  22
ENDBRANCH  20  21
ENDBRANCH  19  20
ENDBRANCH   1  18
TORSDOF 4
ENDMDL
