ROOT
HETATM    1  C3  UNL     1      29.634   0.166  53.789  1.00  0.00    -0.021 C 
HETATM    2  C4  UNL     1      28.497   0.737  54.157  1.00  0.00    -0.047 C 
HETATM    3  C5  UNL     1      27.387  -0.005  54.761  1.00  0.00     0.076 C 
HETATM    4  C6  UNL     1      26.078   0.398  54.131  1.00  0.00    -0.043 A 
HETATM    5  C7  UNL     1      24.905  -0.163  54.043  1.00  0.00     0.020 A 
HETATM    6  C8  UNL     1      23.989   0.709  53.295  1.00  0.00    -0.025 A 
HETATM    7  C17 UNL     1      24.601   1.829  52.912  1.00  0.00     0.024 A 
HETATM    8  C18 UNL     1      25.950   1.665  53.433  1.00  0.00    -0.030 A 
HETATM    9  C19 UNL     1      27.015   2.449  53.371  1.00  0.00     0.021 C 
HETATM   10  C20 UNL     1      28.366   2.200  53.936  1.00  0.00     0.171 C 
ENDROOT
BRANCH   6  11
HETATM   11  C9  UNL     1      22.588   0.408  52.999  1.00  0.00    -0.026 A 
HETATM   12  C10 UNL     1      21.785  -0.077  54.012  1.00  0.00     0.013 A 
HETATM   13  C11 UNL     1      20.465  -0.355  53.713  1.00  0.00     0.022 A 
HETATM   14  C12 UNL     1      19.936  -0.163  52.438  1.00  0.00     0.031 A 
HETATM   15  C15 UNL     1      20.754   0.326  51.425  1.00  0.00     0.022 A 
HETATM   16  C16 UNL     1      22.090   0.609  51.727  1.00  0.00     0.013 A 
BRANCH  14  17
HETATM   17  S1  UNL     1      18.249  -0.512  52.030  1.00  0.00     0.049 S 
HETATM   18  O1  UNL     1      17.513   0.785  51.734  1.00  0.00    -0.253 OA
BRANCH  17  19
HETATM   19  C13 UNL     1      17.469  -1.280  53.458  1.00  0.00     0.109 C 
HETATM   20  C14 UNL     1      17.765  -2.755  53.457  1.00  0.00     0.019 C 
ENDBRANCH  17  19
ENDBRANCH  14  17
ENDBRANCH   6  11
BRANCH  10  21
HETATM   21  O2  UNL     1      29.353   2.683  53.083  1.00  0.00    -0.387 OA
HETATM   22  H22 UNL     1      30.112   2.028  53.075  1.00  0.00     0.210 HD
ENDBRANCH  10  21
BRANCH   1  23
HETATM   23  C2  UNL     1      30.013  -1.268  53.900  1.00  0.00     0.023 C 
HETATM   24  C1  UNL     1      29.013  -2.015  53.012  1.00  0.00     0.009 C 
ENDBRANCH   1  23
TORSDOF 5
ENDMDL
