ROOT
HETATM    1  N1  UNL     1      22.664   1.718  50.668  1.00  0.00    -0.282 NA
HETATM    2  C6  UNL     1      21.718   1.575  51.551  1.00  0.00     0.227 C 
ENDROOT
BRANCH   1   3
HETATM    3  C5  UNL     1      22.631   2.730  49.630  1.00  0.00     0.156 C 
BRANCH   3   4
HETATM    4  C4  UNL     1      23.987   3.286  49.327  1.00  0.00     0.078 C 
BRANCH   4   5
HETATM    5  C3  UNL     1      24.797   3.299  50.549  1.00  0.00     0.011 C 
HETATM    6  C2  UNL     1      25.917   2.558  50.632  1.00  0.00    -0.006 C 
HETATM    7  C1  UNL     1      26.978   2.297  51.643  1.00  0.00     0.038 C 
BRANCH   5   8
HETATM    8  N4  UNL     1      24.754   3.934  51.814  1.00  0.00    -0.313 N 
HETATM    9  C14 UNL     1      23.721   4.793  52.279  1.00  0.00     0.318 C 
HETATM   10  N5  UNL     1      23.698   5.422  53.551  1.00  0.00    -0.352 N 
HETATM   11  O1  UNL     1      22.623   5.322  51.973  1.00  0.00    -0.247 OA
HETATM   12  H17 UNL     1      24.091   6.287  54.006  1.00  0.00     0.160 HD
HETATM   13  H18 UNL     1      23.234   5.168  54.473  1.00  0.00     0.160 HD
HETATM   14  H16 UNL     1      25.507   3.830  52.558  1.00  0.00     0.170 HD
ENDBRANCH   5   8
ENDBRANCH   4   5
ENDBRANCH   3   4
ENDBRANCH   1   3
BRANCH   2  15
HETATM   15  N2  UNL     1      22.404   0.486  52.162  1.00  0.00    -0.238 NA
HETATM   16  C7  UNL     1      23.305   0.822  53.054  1.00  0.00     0.208 C 
BRANCH  16  17
HETATM   17  N3  UNL     1      23.986  -0.239  53.661  1.00  0.00    -0.351 N 
HETATM   18  H11 UNL     1      23.437  -1.029  54.117  1.00  0.00     0.166 HD
BRANCH  17  19
HETATM   19  C8  UNL     1      25.393  -0.344  53.721  1.00  0.00     0.033 A 
HETATM   20  C9  UNL     1      26.220   0.289  54.618  1.00  0.00     0.031 A 
HETATM   21  C10 UNL     1      27.588   0.175  54.653  1.00  0.00     0.021 A 
HETATM   22  C11 UNL     1      28.222  -0.631  53.734  1.00  0.00     0.011 A 
HETATM   23 BR1  UNL     1      30.100  -0.826  53.736  1.00  0.00    -0.051 Br
HETATM   24  C12 UNL     1      27.468  -1.295  52.809  1.00  0.00     0.021 A 
HETATM   25  C13 UNL     1      26.101  -1.141  52.822  1.00  0.00     0.031 A 
ENDBRANCH  17  19
ENDBRANCH  16  17
ENDBRANCH   2  15
TORSDOF 7
ENDMDL
