ROOT
HETATM    1  C2  UNL     1      24.140   2.230  51.808  1.00  0.00     0.080 C 
HETATM    2  C3  UNL     1      23.560   1.161  52.294  1.00  0.00     0.049 C 
HETATM    3  C4  UNL     1      22.730   0.205  53.015  1.00  0.00    -0.027 A 
HETATM    4  C5  UNL     1      23.351  -0.323  54.132  1.00  0.00     0.012 A 
HETATM    5  C6  UNL     1      22.770  -1.246  54.995  1.00  0.00     0.001 A 
HETATM    6  C7  UNL     1      21.499  -1.556  54.583  1.00  0.00     0.001 A 
HETATM    7  C8  UNL     1      20.829  -1.072  53.490  1.00  0.00     0.008 A 
HETATM    8  C9  UNL     1      21.450  -0.162  52.673  1.00  0.00    -0.042 A 
HETATM    9  C10 UNL     1      20.611   0.324  51.534  1.00  0.00     0.046 A 
HETATM   10  C11 UNL     1      21.433   0.784  50.367  1.00  0.00     0.039 A 
HETATM   11  C12 UNL     1      20.879   1.722  51.343  1.00  0.00     0.118 A 
HETATM   12  N1  UNL     1      20.071   2.695  50.719  1.00  0.00    -0.279 NA
HETATM   13  C13 UNL     1      20.366   3.931  51.060  1.00  0.00     0.197 C 
HETATM   14  N2  UNL     1      21.402   4.357  51.982  1.00  0.00    -0.373 N 
HETATM   15  C14 UNL     1      22.561   4.053  52.696  1.00  0.00     0.142 A 
HETATM   16  C15 UNL     1      23.727   4.923  52.494  1.00  0.00     0.015 A 
HETATM   17  C16 UNL     1      23.766   3.605  52.211  1.00  0.00     0.000 A 
HETATM   18  H14 UNL     1      21.200   5.370  52.262  1.00  0.00     0.161 HD
ENDROOT
BRANCH   1  19
HETATM   19  O2  UNL     1      25.193   2.202  50.840  1.00  0.00    -0.326 OA
BRANCH  19  20
HETATM   20  C1  UNL     1      26.519   1.992  51.208  1.00  0.00     0.341 C 
BRANCH  20  21
HETATM   21  O1  UNL     1      27.167   3.233  51.207  1.00  0.00    -0.377 OA
HETATM   22  H1  UNL     1      26.648   3.935  51.675  1.00  0.00     0.212 HD
ENDBRANCH  20  21
ENDBRANCH  19  20
ENDBRANCH   1  19
TORSDOF 3
ENDMDL
