ROOT
HETATM    1  C3  UNL     1      25.457   4.176  49.942  1.00  0.00    -0.066 C 
HETATM    2  C4  UNL     1      26.509   4.436  49.410  1.00  0.00     0.015 C 
HETATM    3  C5  UNL     1      27.736   4.763  48.786  1.00  0.00     0.152 C 
HETATM    4  N1  UNL     1      28.727   5.047  48.269  1.00  0.00    -0.182 NA
ENDROOT
BRANCH   1   5
HETATM    5  C2  UNL     1      24.156   3.880  50.592  1.00  0.00     0.161 C 
HETATM    6  C1  UNL     1      23.052   4.425  49.684  1.00  0.00     0.046 C 
BRANCH   5   7
HETATM    7  N2  UNL     1      24.030   2.473  50.789  1.00  0.00    -0.343 N 
HETATM    8  C6  UNL     1      23.901   1.855  52.066  1.00  0.00     0.242 C 
HETATM    9  O1  UNL     1      23.922   2.788  52.936  1.00  0.00    -0.269 OA
HETATM   10  H5  UNL     1      24.028   1.814  49.973  1.00  0.00     0.164 HD
BRANCH   8  11
HETATM   11  C7  UNL     1      23.768   0.459  52.396  1.00  0.00     0.085 C 
BRANCH  11  12
HETATM   12  C8  UNL     1      23.851  -0.189  53.531  1.00  0.00    -0.003 A 
HETATM   13  C9  UNL     1      22.506  -0.599  53.988  1.00  0.00     0.191 A 
HETATM   14  N3  UNL     1      22.569  -1.307  55.255  1.00  0.00    -0.278 NA
HETATM   15  C10 UNL     1      23.717  -1.487  55.794  1.00  0.00     0.227 A 
HETATM   16  N4  UNL     1      24.962  -1.057  55.272  1.00  0.00    -0.241 NA
HETATM   17  C11 UNL     1      25.123  -0.415  54.169  1.00  0.00     0.079 A 
BRANCH  17  18
HETATM   18  C12 UNL     1      26.408   0.000  53.675  1.00  0.00     0.032 A 
HETATM   19  C13 UNL     1      27.511  -0.178  54.423  1.00  0.00     0.020 A 
HETATM   20  C14 UNL     1      28.360   0.401  53.429  1.00  0.00     0.044 A 
HETATM   21  C15 UNL     1      27.282   0.577  52.698  1.00  0.00     0.129 A 
HETATM   22  F1  UNL     1      27.046   1.095  51.484  1.00  0.00    -0.205 F 
ENDBRANCH  17  18
ENDBRANCH  11  12
ENDBRANCH   8  11
ENDBRANCH   5   7
ENDBRANCH   1   5
TORSDOF 5
ENDMDL
