ROOT
HETATM    1  C2  UNL     1      24.422   1.613  51.890  1.00  0.00     0.160 C 
ENDROOT
BRANCH   1   2
HETATM    2  O1  UNL     1      24.455   3.029  51.632  1.00  0.00    -0.387 OA
HETATM    3  C1  UNL     1      23.488   3.323  50.664  1.00  0.00     0.202 C 
ENDBRANCH   1   2
BRANCH   1   4
HETATM    4  C3  UNL     1      23.354   1.408  52.881  1.00  0.00     0.150 C 
BRANCH   4   5
HETATM    5  N1  UNL     1      22.631   0.202  52.837  1.00  0.00    -0.406 N 
HETATM    6  C4  UNL     1      21.465   0.052  52.092  1.00  0.00     0.143 C 
BRANCH   5   7
HETATM    7  C5  UNL     1      23.059  -0.895  53.603  1.00  0.00     0.228 C 
BRANCH   7   8
HETATM    8  C6  UNL     1      22.221  -1.262  54.803  1.00  0.00     0.368 C 
HETATM    9  F1  UNL     1      21.653  -0.086  55.293  1.00  0.00    -0.174 F 
HETATM   10  F2  UNL     1      21.176  -2.099  54.444  1.00  0.00    -0.174 F 
BRANCH   8  11
HETATM   11  O2  UNL     1      22.926  -1.851  55.838  1.00  0.00    -0.335 OA
HETATM   12  H12 UNL     1      22.404  -1.843  56.653  1.00  0.00     0.216 HD
ENDBRANCH   8  11
ENDBRANCH   7   8
ENDBRANCH   5   7
ENDBRANCH   4   5
ENDBRANCH   1   4
BRANCH   1  13
HETATM   13  C7  UNL     1      25.806   1.336  52.436  1.00  0.00     0.108 C 
HETATM   14  C8  UNL     1      26.006   1.993  53.792  1.00  0.00     0.035 C 
BRANCH  13  15
HETATM   15  N2  UNL     1      26.146  -0.044  52.465  1.00  0.00    -0.386 N 
HETATM   16  H17 UNL     1      25.293  -0.646  52.206  1.00  0.00     0.160 HD
BRANCH  15  17
HETATM   17  C9  UNL     1      27.270  -0.864  52.741  1.00  0.00     0.016 A 
HETATM   18  C10 UNL     1      27.421  -2.232  52.694  1.00  0.00     0.022 A 
HETATM   19  C11 UNL     1      28.643  -2.729  53.066  1.00  0.00    -0.012 A 
HETATM   20  C12 UNL     1      29.365  -1.609  53.386  1.00  0.00     0.010 A 
HETATM   21  C13 UNL     1      29.859  -0.304  53.642  1.00  0.00     0.023 A 
HETATM   22  C14 UNL     1      28.527  -0.445  53.188  1.00  0.00     0.034 A 
ENDBRANCH  15  17
ENDBRANCH  13  15
ENDBRANCH   1  13
TORSDOF 9
ENDMDL
