ROOT
HETATM    1  C2  UNL     1      24.500   0.180  52.941  1.00  0.00     0.106 A 
HETATM    2  C3  UNL     1      24.991   1.390  52.421  1.00  0.00     0.072 A 
HETATM    3  C4  UNL     1      24.289   2.499  52.002  1.00  0.00     0.082 A 
HETATM    4  C5  UNL     1      22.930   2.441  52.092  1.00  0.00     0.100 A 
HETATM    5  C6  UNL     1      22.375   1.290  52.595  1.00  0.00     0.133 A 
HETATM    6  C8  UNL     1      23.101   0.158  53.021  1.00  0.00     0.137 A 
HETATM    7  N1  UNL     1      21.717   3.125  51.823  1.00  0.00    -0.330 N 
HETATM    8  C10 UNL     1      20.535   3.586  52.422  1.00  0.00     0.158 C 
HETATM    9  C11 UNL     1      21.731   3.384  50.451  1.00  0.00     0.162 C 
HETATM   10  N2  UNL     1      21.390   2.868  49.386  1.00  0.00    -0.224 NA
HETATM   11  C12 UNL     1      21.737   3.767  48.254  1.00  0.00     0.212 C 
HETATM   12  C13 UNL     1      20.498   4.522  47.883  1.00  0.00     0.082 C 
HETATM   13  O5  UNL     1      22.618   4.689  48.913  1.00  0.00    -0.308 OA
HETATM   14  C15 UNL     1      22.493   4.545  50.262  1.00  0.00     0.118 C 
HETATM   15  C16 UNL     1      23.037   5.452  51.020  1.00  0.00     0.042 C 
HETATM   16  C17 UNL     1      23.786   6.608  51.386  1.00  0.00     0.020 C 
HETATM   17  C18 UNL     1      24.485   7.390  50.593  1.00  0.00     0.090 C 
HETATM   18  N3  UNL     1      24.564   7.100  49.201  1.00  0.00    -0.348 N 
HETATM   19  C19 UNL     1      25.523   5.982  49.307  1.00  0.00     0.187 A 
HETATM   20  N4  UNL     1      25.407   5.042  50.164  1.00  0.00    -0.042 NA
HETATM   21  C20 UNL     1      25.995   3.981  50.526  1.00  0.00     0.729 A 
HETATM   22  N5  UNL     1      27.083   3.749  49.800  1.00  0.00    -0.072 NA
HETATM   23  C21 UNL     1      27.436   4.618  48.800  1.00  0.00     0.182 A 
HETATM   24  C22 UNL     1      26.665   5.753  48.533  1.00  0.00     0.180 A 
HETATM   25  F1  UNL     1      26.911   6.690  47.565  1.00  0.00    -0.200 F 
HETATM   26  N6  UNL     1      25.276   3.408  51.583  1.00  0.00    -0.186 N 
HETATM   27  H21 UNL     1      24.469   7.071  48.185  1.00  0.00     0.167 HD
HETATM   28  H23 UNL     1      25.797   3.911  52.328  1.00  0.00     0.184 HD
ENDROOT
BRANCH  11  29
HETATM   29  C14 UNL     1      22.371   3.034  47.162  1.00  0.00     0.293 C 
HETATM   30  O4  UNL     1      22.420   1.859  47.550  1.00  0.00    -0.302 OA
ENDBRANCH  11  29
BRANCH   5  31
HETATM   31  O2  UNL     1      21.022   0.955  52.818  1.00  0.00    -0.351 OA
HETATM   32  C7  UNL     1      20.452   0.123  51.785  1.00  0.00     0.210 C 
ENDBRANCH   5  31
BRANCH   6  33
HETATM   33  O3  UNL     1      22.638  -1.070  53.545  1.00  0.00    -0.351 OA
HETATM   34  C9  UNL     1      22.374  -1.216  54.924  1.00  0.00     0.210 C 
ENDBRANCH   6  33
BRANCH   1  35
HETATM   35  O1  UNL     1      25.297  -0.890  53.338  1.00  0.00    -0.353 OA
HETATM   36  C1  UNL     1      26.477  -1.243  52.685  1.00  0.00     0.210 C 
ENDBRANCH   1  35
TORSDOF 4
ENDMDL
