ROOT
HETATM    1  C7  UNL     1      25.991   2.663  51.361  1.00  0.00     0.723 A 
HETATM    2  N3  UNL     1      24.683   2.652  51.667  1.00  0.00    -0.075 NA
HETATM    3  C8  UNL     1      24.163   1.590  52.311  1.00  0.00     0.139 A 
HETATM    4  C9  UNL     1      24.949   0.490  52.673  1.00  0.00     0.053 A 
HETATM    5  C10 UNL     1      26.287   0.532  52.344  1.00  0.00     0.089 A 
HETATM    6  N5  UNL     1      26.782   1.604  51.701  1.00  0.00    -0.062 NA
ENDROOT
BRANCH   1   7
HETATM    7  N2  UNL     1      26.553   3.779  50.680  1.00  0.00    -0.211 N 
HETATM    8  H10 UNL     1      27.544   4.057  50.881  1.00  0.00     0.178 HD
BRANCH   7   9
HETATM    9  C6  UNL     1      25.697   4.474  49.731  1.00  0.00     0.172 A 
HETATM   10  C2  UNL     1      25.316   5.773  50.267  1.00  0.00     0.033 A 
HETATM   11  C3  UNL     1      25.933   6.417  49.343  1.00  0.00    -0.039 A 
HETATM   12  C4  UNL     1      26.127   7.850  49.029  1.00  0.00     0.047 C 
HETATM   13  C5  UNL     1      26.403   5.243  48.675  1.00  0.00     0.142 A 
HETATM   14 CL1  UNL     1      28.164   5.005  48.603  1.00  0.00    -0.118 Cl
BRANCH  10  15
HETATM   15  N1  UNL     1      24.513   5.956  51.445  1.00  0.00    -0.396 N 
HETATM   16  C1  UNL     1      23.069   5.798  51.409  1.00  0.00     0.146 C 
HETATM   17  H4  UNL     1      24.905   6.211  52.396  1.00  0.00     0.159 HD
ENDBRANCH  10  15
ENDBRANCH   7   9
ENDBRANCH   1   7
BRANCH   5  18
HETATM   18  C11 UNL     1      27.219  -0.543  52.660  1.00  0.00     0.011 A 
HETATM   19  C12 UNL     1      28.442  -0.206  53.197  1.00  0.00     0.017 A 
HETATM   20  C13 UNL     1      29.407  -1.161  53.537  1.00  0.00     0.020 A 
HETATM   21  C14 UNL     1      29.099  -2.494  53.314  1.00  0.00     0.116 A 
HETATM   22  N4  UNL     1      27.905  -2.812  52.791  1.00  0.00    -0.272 NA
HETATM   23  C15 UNL     1      26.970  -1.880  52.464  1.00  0.00     0.130 A 
ENDBRANCH   5  18
TORSDOF 4
ENDMDL
