ROOT
HETATM    1  C1  UNL     1      20.317   4.323  51.205  1.00  0.00     0.050 C 
HETATM    2  C2  UNL     1      20.833   2.883  51.047  1.00  0.00     0.274 C 
HETATM    3  N1  UNL     1      21.915   2.651  51.992  1.00  0.00     0.095 N 
HETATM    4  C3  UNL     1      23.016   3.569  51.753  1.00  0.00     0.287 C 
HETATM    5  C4  UNL     1      24.100   3.299  52.769  1.00  0.00     0.150 C 
HETATM    6  N2  UNL     1      24.590   1.943  52.691  1.00  0.00    -0.195 NA
HETATM    7  C5  UNL     1      25.374   1.591  53.830  1.00  0.00     0.130 C 
HETATM    8  C6  UNL     1      26.190   0.344  53.666  1.00  0.00     0.043 C 
HETATM    9  C7  UNL     1      25.489  -0.865  54.176  1.00  0.00     0.097 C 
HETATM   10  N3  UNL     1      24.512  -0.612  54.976  1.00  0.00    -0.257 NA
HETATM   11  C8  UNL     1      23.702  -1.575  55.584  1.00  0.00     0.241 C 
HETATM   12  N4  UNL     1      22.488  -1.434  55.173  1.00  0.00    -0.203 NA
HETATM   13  S1  UNL     1      22.082  -0.163  54.015  1.00  0.00     0.029 SA
HETATM   14  C9  UNL     1      20.381  -0.474  53.486  1.00  0.00     0.083 C 
HETATM   15  C10 UNL     1      19.353  -0.129  52.748  1.00  0.00     0.024 C 
HETATM   16  C11 UNL     1      19.945   1.034  52.101  1.00  0.00     0.085 C 
HETATM   17  C12 UNL     1      19.682   2.011  51.210  1.00  0.00     0.113 C 
HETATM   18  F1  UNL     1      18.855   2.657  50.321  1.00  0.00    -0.212 F 
HETATM   19  C13 UNL     1      26.590   0.088  52.233  1.00  0.00     0.039 C 
HETATM   20  C14 UNL     1      26.495   1.468  51.565  1.00  0.00     0.194 C 
HETATM   21  O1  UNL     1      25.132   1.733  51.512  1.00  0.00    -0.303 OA
HETATM   22  H5  UNL     1      22.306   1.705  51.695  1.00  0.00     0.316 HD
ENDROOT
BRANCH  14  23
HETATM   23  N5  UNL     1      20.431  -1.600  54.391  1.00  0.00    -0.393 N 
HETATM   24  H15 UNL     1      21.062  -2.246  54.950  1.00  0.00     0.156 HD
HETATM   25  H16 UNL     1      19.894  -2.321  54.929  1.00  0.00     0.156 HD
ENDBRANCH  14  23
TORSDOF 1
ENDMDL
