ROOT
HETATM    1  C2  UNL     1      20.208  -0.066  52.825  1.00  0.00     0.103 C 
HETATM    2  C3  UNL     1      20.507  -0.758  53.913  1.00  0.00     0.069 C 
HETATM    3  C4  UNL     1      21.933  -0.822  54.199  1.00  0.00     0.069 C 
HETATM    4  N1  UNL     1      22.283  -1.377  55.312  1.00  0.00    -0.242 NA
HETATM    5  C5  UNL     1      23.657  -1.440  55.663  1.00  0.00     0.257 C 
HETATM    6  N2  UNL     1      24.620  -0.937  54.929  1.00  0.00    -0.149 NA
HETATM    7  N3  UNL     1      24.306  -0.275  53.723  1.00  0.00    -0.195 N 
HETATM    8  C12 UNL     1      22.996  -0.436  53.277  1.00  0.00     0.206 C 
HETATM    9  C13 UNL     1      22.478   0.353  52.167  1.00  0.00     0.048 C 
HETATM   10  C14 UNL     1      21.191   0.528  51.931  1.00  0.00     0.103 C 
ENDROOT
BRANCH   7  11
HETATM   11  N4  UNL     1      25.180   0.507  52.962  1.00  0.00    -0.282 N 
HETATM   12  H6  UNL     1      24.827   1.058  52.145  1.00  0.00     0.189 HD
BRANCH  11  13
HETATM   13  C6  UNL     1      26.568   0.604  53.237  1.00  0.00     0.051 A 
HETATM   14  C7  UNL     1      27.195   1.784  53.568  1.00  0.00     0.031 A 
HETATM   15  C8  UNL     1      28.558   1.791  53.824  1.00  0.00     0.004 A 
HETATM   16  C9  UNL     1      29.324   0.649  53.758  1.00  0.00     0.024 A 
HETATM   17  C10 UNL     1      28.708  -0.542  53.427  1.00  0.00     0.036 A 
HETATM   18 CL1  UNL     1      29.679  -2.001  53.342  1.00  0.00    -0.084 Cl
HETATM   19  C11 UNL     1      27.340  -0.533  53.174  1.00  0.00     0.054 A 
ENDBRANCH  11  13
ENDBRANCH   7  11
BRANCH  10  20
HETATM   20  O2  UNL     1      20.852   1.284  50.817  1.00  0.00    -0.319 OA
BRANCH  20  21
HETATM   21  C15 UNL     1      21.251   0.859  49.523  1.00  0.00     0.398 C 
HETATM   22  F1  UNL     1      22.377   1.567  49.121  1.00  0.00    -0.227 F 
ENDBRANCH  20  21
ENDBRANCH  10  20
BRANCH   1  23
HETATM   23  O1  UNL     1      18.891   0.124  52.420  1.00  0.00    -0.353 OA
HETATM   24  C1  UNL     1      18.030  -0.997  52.656  1.00  0.00     0.210 C 
ENDBRANCH   1  23
TORSDOF 5
ENDMDL
