ROOT
HETATM    1  C1  UNL     1      24.440   8.508  49.596  1.00  0.00     0.050 C 
HETATM    2  C2  UNL     1      23.517   7.715  50.522  1.00  0.00     0.279 C 
HETATM    3  N1  UNL     1      23.959   6.331  50.377  1.00  0.00     0.109 N 
HETATM    4  C3  UNL     1      23.008   5.733  49.438  1.00  0.00     0.300 C 
HETATM    5  S1  UNL     1      23.504   4.152  48.788  1.00  0.00    -0.091 SA
HETATM    6  C4  UNL     1      24.331   3.193  50.031  1.00  0.00     0.032 A 
HETATM    7  C5  UNL     1      25.715   3.387  49.943  1.00  0.00     0.023 A 
HETATM    8  C6  UNL     1      26.619   2.722  50.781  1.00  0.00     0.034 A 
HETATM    9  C7  UNL     1      26.092   1.855  51.715  1.00  0.00     0.072 A 
HETATM   10  N2  UNL     1      26.949   1.189  52.532  1.00  0.00    -0.258 NA
HETATM   11  C8  UNL     1      26.435   0.340  53.427  1.00  0.00     0.149 A 
HETATM   12  C9  UNL     1      25.074   0.135  53.527  1.00  0.00     0.087 A 
HETATM   13  C10 UNL     1      24.192   0.804  52.703  1.00  0.00     0.112 A 
HETATM   14  C11 UNL     1      24.726   1.678  51.785  1.00  0.00     0.058 A 
HETATM   15  C12 UNL     1      23.829   2.321  50.975  1.00  0.00     0.082 A 
HETATM   16  N3  UNL     1      22.439   2.192  51.056  1.00  0.00    -0.279 N 
HETATM   17  N4  UNL     1      21.513   2.272  49.979  1.00  0.00    -0.183 N 
HETATM   18  N6  UNL     1      21.602   3.639  50.074  1.00  0.00    -0.171 NA
HETATM   19  C14 UNL     1      20.855   4.573  49.731  1.00  0.00     0.125 C 
HETATM   20  C15 UNL     1      21.696   5.685  50.197  1.00  0.00     0.097 C 
HETATM   21  C16 UNL     1      21.065   7.040  49.958  1.00  0.00     0.026 C 
HETATM   22  C17 UNL     1      22.088   7.907  50.157  1.00  0.00     0.123 C 
HETATM   23  F1  UNL     1      21.912   9.255  50.033  1.00  0.00    -0.209 F 
HETATM   24  O1  UNL     1      22.877   0.477  52.938  1.00  0.00    -0.339 OA
HETATM   25  C18 UNL     1      22.525  -0.804  53.420  1.00  0.00     0.278 C 
HETATM   26  C19 UNL     1      23.268  -1.087  54.702  1.00  0.00     0.246 C 
HETATM   27  O2  UNL     1      22.850  -1.492  55.794  1.00  0.00    -0.271 OA
HETATM   28  N7  UNL     1      24.676  -0.815  54.538  1.00  0.00    -0.322 N 
HETATM   29  H5  UNL     1      23.829   5.873  51.307  1.00  0.00     0.318 HD
HETATM   30  H10 UNL     1      22.003   2.039  51.984  1.00  0.00     0.189 HD
HETATM   31  H20 UNL     1      25.400  -1.295  55.140  1.00  0.00     0.169 HD
ENDROOT
BRANCH  17  32
HETATM   32  C13 UNL     1      21.184   0.915  49.607  1.00  0.00     0.437 C 
BRANCH  32  33
HETATM   33  N5  UNL     1      20.602   0.168  50.696  1.00  0.00     0.099 N 
HETATM   34  H13 UNL     1      20.726   0.596  51.617  1.00  0.00     0.315 HD
HETATM   35  H14 UNL     1      20.838  -0.844  50.688  1.00  0.00     0.315 HD
ENDBRANCH  32  33
ENDBRANCH  17  32
TORSDOF 2
ENDMDL
