ROOT
HETATM    1  C7  UNL     1      25.865   1.657  52.561  1.00  0.00    -0.010 A 
HETATM    2  C8  UNL     1      25.478   0.341  52.419  1.00  0.00     0.015 A 
HETATM    3  C9  UNL     1      26.337  -0.728  52.625  1.00  0.00     0.023 A 
HETATM    4  C10 UNL     1      27.648  -0.506  52.989  1.00  0.00     0.044 A 
HETATM    5  C11 UNL     1      28.551  -1.599  53.205  1.00  0.00     0.099 C 
HETATM    6  N4  UNL     1      29.290  -2.480  53.373  1.00  0.00    -0.191 NA
HETATM    7  C12 UNL     1      28.064   0.798  53.138  1.00  0.00     0.023 A 
HETATM    8  C13 UNL     1      27.178   1.827  52.924  1.00  0.00     0.015 A 
ENDROOT
BRANCH   1   9
HETATM    9  C6  UNL     1      24.931   2.742  52.334  1.00  0.00     0.037 C 
HETATM   10  N3  UNL     1      24.384   3.331  51.184  1.00  0.00    -0.367 N 
HETATM   11  C5  UNL     1      24.491   2.975  49.801  1.00  0.00     0.146 C 
HETATM   12  C16 UNL     1      23.575   4.495  51.486  1.00  0.00     0.157 C 
HETATM   13  C4  UNL     1      23.542   3.785  48.946  1.00  0.00     0.170 C 
HETATM   14  N2  UNL     1      22.296   3.975  49.645  1.00  0.00    -0.273 NA
HETATM   15  C3  UNL     1      22.238   4.318  50.860  1.00  0.00     0.118 C 
HETATM   16  C15 UNL     1      23.492   4.458  52.987  1.00  0.00     0.062 C 
HETATM   17  C14 UNL     1      24.418   3.390  53.363  1.00  0.00     0.006 C 
BRANCH  15  18
HETATM   18  N1  UNL     1      20.990   4.494  51.511  1.00  0.00    -0.369 N 
HETATM   19  H5  UNL     1      20.651   5.503  51.560  1.00  0.00     0.161 HD
BRANCH  18  20
HETATM   20  C2  UNL     1      20.267   3.416  52.044  1.00  0.00     0.108 C 
HETATM   21  C1  UNL     1      18.960   3.298  51.274  1.00  0.00     0.037 C 
BRANCH  20  22
HETATM   22  C17 UNL     1      20.945   2.117  52.044  1.00  0.00    -0.051 A 
HETATM   23  C18 UNL     1      21.507   0.949  51.547  1.00  0.00    -0.010 A 
HETATM   24  C19 UNL     1      21.550   1.118  52.955  1.00  0.00     0.068 A 
BRANCH  24  25
HETATM   25  C20 UNL     1      20.636   0.249  53.791  1.00  0.00     0.235 C 
HETATM   26  F1  UNL     1      20.624   0.633  55.125  1.00  0.00    -0.254 F 
ENDBRANCH  24  25
ENDBRANCH  20  22
ENDBRANCH  18  20
ENDBRANCH  15  18
ENDBRANCH   1   9
TORSDOF 5
ENDMDL
