ROOT
HETATM    1  C3  UNL     1      22.580   2.687  51.290  1.00  0.00     0.187 C 
HETATM    2  N1  UNL     1      22.996   3.507  52.363  1.00  0.00    -0.267 NA
HETATM    3  C4  UNL     1      23.552   4.655  52.487  1.00  0.00     0.227 C 
HETATM    4  N2  UNL     1      24.056   5.734  51.698  1.00  0.00    -0.256 NA
HETATM    5  C5  UNL     1      24.635   5.739  50.523  1.00  0.00     0.130 C 
HETATM    6  C6  UNL     1      25.027   4.746  49.515  1.00  0.00     0.288 C 
HETATM    7  C14 UNL     1      24.154   3.586  49.406  1.00  0.00     0.048 C 
HETATM    8  C15 UNL     1      23.265   2.816  50.011  1.00  0.00     0.072 C 
ENDROOT
BRANCH   6   9
HETATM    9  N3  UNL     1      26.380   4.294  49.778  1.00  0.00     0.115 N 
HETATM   10  H8  UNL     1      27.042   4.528  49.018  1.00  0.00     0.319 HD
BRANCH   9  11
HETATM   11  C7  UNL     1      26.468   2.929  50.216  1.00  0.00     0.419 C 
BRANCH  11  12
HETATM   12  N4  UNL     1      27.057   2.830  51.536  1.00  0.00    -0.258 NA
HETATM   13  C8  UNL     1      26.993   1.684  52.124  1.00  0.00     0.081 A 
HETATM   14  C9  UNL     1      26.406   0.429  51.665  1.00  0.00     0.034 A 
HETATM   15  C13 UNL     1      27.629   1.726  53.457  1.00  0.00     0.076 A 
HETATM   16  C10 UNL     1      26.459  -0.633  52.452  1.00  0.00     0.002 A 
HETATM   17  C11 UNL     1      27.085  -0.607  53.771  1.00  0.00     0.002 A 
HETATM   18  C12 UNL     1      27.641   0.489  54.265  1.00  0.00     0.033 A 
HETATM   19  N5  UNL     1      28.189   2.761  53.998  1.00  0.00    -0.298 NA
HETATM   20  H15 UNL     1      28.257   3.691  53.552  1.00  0.00     0.187 HD
ENDBRANCH  11  12
ENDBRANCH   9  11
ENDBRANCH   6   9
BRANCH   8  21
HETATM   21  O1  UNL     1      22.716   1.739  49.336  1.00  0.00    -0.358 OA
HETATM   22  C16 UNL     1      22.225   1.928  48.034  1.00  0.00     0.209 C 
ENDBRANCH   8  21
BRANCH   1  23
HETATM   23  C2  UNL     1      22.776   1.264  51.768  1.00  0.00    -0.003 C 
HETATM   24  C1  UNL     1      23.047   1.193  53.067  1.00  0.00     0.009 C 
ENDBRANCH   1  23
TORSDOF 5
ENDMDL
