ROOT
HETATM    1  C4  UNL     1      26.106   2.783  50.906  1.00  0.00     0.069 A 
HETATM    2  C5  UNL     1      24.780   2.492  50.651  1.00  0.00     0.050 A 
HETATM    3  C6  UNL     1      24.117   1.667  51.533  1.00  0.00     0.041 A 
HETATM    4  C7  UNL     1      22.801   1.431  51.200  1.00  0.00     0.141 A 
HETATM    5  N5  UNL     1      22.049   0.629  52.002  1.00  0.00    -0.224 NA
HETATM    6  C16 UNL     1      22.600   0.072  53.113  1.00  0.00     0.236 A 
HETATM    7  N6  UNL     1      23.903   0.306  53.442  1.00  0.00    -0.241 NA
HETATM    8  C17 UNL     1      24.660   1.095  52.665  1.00  0.00     0.075 A 
HETATM    9  C18 UNL     1      25.977   1.399  52.897  1.00  0.00     0.071 A 
HETATM   10  C19 UNL     1      26.702   2.225  52.043  1.00  0.00     0.097 A 
ENDROOT
BRANCH   4  11
HETATM   11  N2  UNL     1      22.041   1.913  50.097  1.00  0.00    -0.340 N 
HETATM   12  C8  UNL     1      21.863   1.452  48.708  1.00  0.00     0.172 C 
HETATM   13  C9  UNL     1      21.833   2.650  47.793  1.00  0.00     0.103 C 
HETATM   14  N3  UNL     1      21.892   3.854  48.186  1.00  0.00    -0.295 NA
HETATM   15  C10 UNL     1      21.992   4.193  49.559  1.00  0.00     0.145 C 
HETATM   16  C13 UNL     1      21.259   3.130  50.358  1.00  0.00     0.198 C 
BRANCH  15  17
HETATM   17  C11 UNL     1      21.507   5.587  49.864  1.00  0.00     0.026 C 
HETATM   18  C12 UNL     1      21.812   5.847  51.325  1.00  0.00     0.007 C 
ENDBRANCH  15  17
BRANCH  16  19
HETATM   19  N4  UNL     1      19.953   2.922  49.784  1.00  0.00    -0.195 NA
HETATM   20  H18 UNL     1      19.735   3.608  49.019  1.00  0.00     0.141 HD
BRANCH  19  21
HETATM   21  S1  UNL     1      18.690   3.131  50.942  1.00  0.00     0.210 S 
HETATM   22  O2  UNL     1      17.753   4.228  50.538  1.00  0.00    -0.211 OA
HETATM   23  O3  UNL     1      19.207   3.424  52.309  1.00  0.00    -0.211 OA
BRANCH  21  24
HETATM   24  C14 UNL     1      17.715   1.632  51.088  1.00  0.00     0.153 C 
HETATM   25  C15 UNL     1      18.562   0.411  50.943  1.00  0.00     0.022 C 
ENDBRANCH  21  24
ENDBRANCH  19  21
ENDBRANCH  16  19
ENDBRANCH   4  11
BRANCH   1  26
HETATM   26  N1  UNL     1      26.884   3.620  50.066  1.00  0.00    -0.325 N 
HETATM   27  C3  UNL     1      26.390   4.753  49.393  1.00  0.00     0.221 C 
HETATM   28  O1  UNL     1      25.259   5.287  49.346  1.00  0.00    -0.273 OA
HETATM   29  H6  UNL     1      27.882   3.352  49.959  1.00  0.00     0.169 HD
BRANCH  27  30
HETATM   30  C2  UNL     1      27.329   5.533  48.545  1.00  0.00     0.098 C 
HETATM   31  C1  UNL     1      26.776   6.909  48.219  1.00  0.00     0.014 C 
ENDBRANCH  27  30
ENDBRANCH   1  26
BRANCH  10  32
HETATM   32  O4  UNL     1      28.038   2.532  52.280  1.00  0.00    -0.354 OA
HETATM   33  C20 UNL     1      28.538   2.342  53.587  1.00  0.00     0.210 C 
ENDBRANCH  10  32
TORSDOF 8
ENDMDL
