ROOT
HETATM    1  C2  UNL     1      25.665  -0.419  54.221  1.00  0.00     0.069 C 
HETATM    2  C3  UNL     1      26.541   0.634  54.466  1.00  0.00     0.038 C 
HETATM    3  C4  UNL     1      26.942   1.805  53.832  1.00  0.00     0.022 C 
HETATM    4  C5  UNL     1      27.491   2.092  52.580  1.00  0.00     0.118 C 
HETATM    5  N1  UNL     1      26.555   2.808  51.867  1.00  0.00    -0.254 NA
HETATM    6  C6  UNL     1      25.549   2.023  51.415  1.00  0.00     0.234 C 
HETATM    7  N2  UNL     1      25.097   0.922  52.078  1.00  0.00    -0.223 NA
HETATM    8  C7  UNL     1      23.828   0.634  52.286  1.00  0.00     0.142 A 
HETATM    9  C8  UNL     1      23.429  -0.148  53.314  1.00  0.00     0.025 A 
HETATM   10  C9  UNL     1      24.317  -0.701  54.217  1.00  0.00     0.053 C 
HETATM   11  C10 UNL     1      22.053  -0.297  53.313  1.00  0.00     0.005 A 
HETATM   12  C11 UNL     1      21.142  -0.966  54.106  1.00  0.00     0.014 A 
HETATM   13  C12 UNL     1      19.797  -0.893  53.801  1.00  0.00     0.001 A 
HETATM   14  C13 UNL     1      19.392  -0.150  52.707  1.00  0.00     0.002 A 
HETATM   15  C14 UNL     1      20.263   0.537  51.883  1.00  0.00     0.030 A 
HETATM   16  C15 UNL     1      21.601   0.444  52.215  1.00  0.00     0.046 A 
HETATM   17  N3  UNL     1      22.694   0.982  51.632  1.00  0.00    -0.335 N 
HETATM   18  C16 UNL     1      22.705   1.840  50.438  1.00  0.00     0.158 C 
ENDROOT
BRANCH   1  19
HETATM   19  O1  UNL     1      26.454  -1.493  53.878  1.00  0.00    -0.356 OA
HETATM   20  C1  UNL     1      27.166  -1.687  52.703  1.00  0.00     0.210 C 
ENDBRANCH   1  19
TORSDOF 1
ENDMDL
