ROOT
HETATM    1  C4  UNL     1      27.071   1.648  51.777  1.00  0.00     0.105 C 
HETATM    2  N2  UNL     1      27.536   2.316  52.823  1.00  0.00    -0.229 NA
HETATM    3  C5  UNL     1      27.862   1.593  54.031  1.00  0.00     0.230 C 
HETATM    4  N3  UNL     1      26.700   1.165  54.193  1.00  0.00    -0.263 NA
HETATM    5  C6  UNL     1      26.053   0.348  55.137  1.00  0.00     0.272 C 
HETATM    6  N4  UNL     1      25.710  -0.940  54.519  1.00  0.00    -0.371 N 
HETATM    7  C7  UNL     1      24.916  -0.476  53.407  1.00  0.00     0.036 C 
HETATM    8  C8  UNL     1      23.488  -0.551  53.550  1.00  0.00    -0.010 A 
HETATM    9  C9  UNL     1      22.558  -0.163  52.615  1.00  0.00     0.016 A 
HETATM   10  C10 UNL     1      21.190  -0.244  52.772  1.00  0.00     0.037 A 
HETATM   11  C11 UNL     1      20.674  -0.739  53.925  1.00  0.00     0.065 A 
HETATM   12  C12 UNL     1      21.556  -1.145  54.903  1.00  0.00     0.037 A 
HETATM   13  C13 UNL     1      22.900  -1.049  54.707  1.00  0.00     0.016 A 
HETATM   14  C14 UNL     1      25.451   0.002  52.296  1.00  0.00     0.011 C 
HETATM   15  C15 UNL     1      26.878   0.167  51.940  1.00  0.00     0.107 C 
HETATM   16  H11 UNL     1      25.637  -1.959  54.321  1.00  0.00     0.161 HD
ENDROOT
BRANCH   1  17
HETATM   17  N1  UNL     1      26.784   2.437  50.653  1.00  0.00    -0.369 N 
HETATM   18  H7  UNL     1      27.321   2.100  49.790  1.00  0.00     0.161 HD
BRANCH  17  19
HETATM   19  C3  UNL     1      25.920   3.560  50.589  1.00  0.00     0.115 C 
BRANCH  19  20
HETATM   20  C2  UNL     1      26.295   4.410  49.395  1.00  0.00     0.025 C 
HETATM   21  C1  UNL     1      25.808   5.836  49.540  1.00  0.00     0.007 C 
ENDBRANCH  19  20
BRANCH  19  22
HETATM   22  C16 UNL     1      24.500   3.363  50.801  1.00  0.00    -0.036 A 
HETATM   23  C17 UNL     1      23.608   2.857  49.880  1.00  0.00     0.009 A 
HETATM   24  C18 UNL     1      22.256   2.691  50.088  1.00  0.00     0.001 A 
HETATM   25  C19 UNL     1      21.726   3.048  51.293  1.00  0.00     0.000 A 
HETATM   26  C20 UNL     1      22.559   3.562  52.266  1.00  0.00     0.001 A 
HETATM   27  C21 UNL     1      23.905   3.706  52.004  1.00  0.00     0.009 A 
ENDBRANCH  19  22
ENDBRANCH  17  19
ENDBRANCH   1  17
BRANCH  11  28
HETATM   28  O1  UNL     1      19.317  -0.843  54.137  1.00  0.00    -0.361 OA
HETATM   29  H14 UNL     1      18.735  -1.209  53.407  1.00  0.00     0.217 HD
ENDBRANCH  11  28
TORSDOF 5
ENDMDL
