ROOT
HETATM    1  C6  UNL     1      21.711   0.591  52.149  1.00  0.00     0.094 C 
HETATM    2  C7  UNL     1      22.398  -0.049  53.081  1.00  0.00     0.123 C 
HETATM    3  N2  UNL     1      23.776  -0.239  53.344  1.00  0.00    -0.363 N 
HETATM    4  C8  UNL     1      24.973   0.532  53.110  1.00  0.00     0.047 A 
HETATM    5  C9  UNL     1      25.980   0.064  53.925  1.00  0.00     0.057 A 
HETATM    6  C10 UNL     1      27.227   0.642  53.888  1.00  0.00     0.077 A 
HETATM    7 CL1  UNL     1      28.501   0.040  54.929  1.00  0.00    -0.081 Cl
HETATM    8  C11 UNL     1      27.406   1.689  53.009  1.00  0.00     0.165 A 
HETATM    9  F1  UNL     1      28.673   2.221  53.020  1.00  0.00    -0.202 F 
HETATM   10  C12 UNL     1      26.425   2.184  52.178  1.00  0.00     0.082 A 
HETATM   11  C13 UNL     1      25.180   1.597  52.225  1.00  0.00     0.028 A 
HETATM   12  C14 UNL     1      24.385   2.352  51.231  1.00  0.00    -0.027 A 
HETATM   13  C15 UNL     1      23.131   2.163  50.846  1.00  0.00     0.021 C 
HETATM   14  C16 UNL     1      21.887   1.407  50.949  1.00  0.00     0.202 C 
HETATM   15  C18 UNL     1      25.204   3.446  50.651  1.00  0.00     0.159 A 
HETATM   16  N3  UNL     1      26.495   3.251  51.240  1.00  0.00    -0.382 N 
HETATM   17  H12 UNL     1      24.045  -1.118  53.812  1.00  0.00     0.165 HD
HETATM   18  H21 UNL     1      27.338   3.820  50.997  1.00  0.00     0.160 HD
ENDROOT
BRANCH   1  19
HETATM   19  O1  UNL     1      20.365   0.386  52.465  1.00  0.00    -0.349 OA
BRANCH  19  20
HETATM   20  C5  UNL     1      19.895  -0.503  53.434  1.00  0.00     0.195 C 
BRANCH  20  21
HETATM   21  C4  UNL     1      18.451  -0.907  53.203  1.00  0.00     0.145 C 
BRANCH  21  22
HETATM   22  N1  UNL     1      18.258  -2.193  53.836  1.00  0.00    -0.397 N 
HETATM   23  H6  UNL     1      18.794  -2.675  54.602  1.00  0.00     0.158 HD
BRANCH  22  24
HETATM   24  C3  UNL     1      17.170  -3.018  53.400  1.00  0.00     0.078 C 
HETATM   25  C2  UNL     1      17.025  -4.254  53.888  1.00  0.00    -0.014 C 
HETATM   26  C1  UNL     1      15.911  -5.128  53.457  1.00  0.00     0.037 C 
ENDBRANCH  22  24
ENDBRANCH  21  22
ENDBRANCH  20  21
ENDBRANCH  19  20
ENDBRANCH   1  19
BRANCH  14  27
HETATM   27  O2  UNL     1      21.786   0.560  49.821  1.00  0.00    -0.380 OA
HETATM   28  C17 UNL     1      21.175   1.356  48.837  1.00  0.00     0.202 C 
ENDBRANCH  14  27
TORSDOF 6
ENDMDL
