ROOT
HETATM    1  O1  UNL     1      17.440  -1.462  53.329  1.00  0.00    -0.267 OA
HETATM    2  C1  UNL     1      18.283  -0.654  52.843  1.00  0.00     0.255 A 
HETATM    3  C2  UNL     1      17.911   0.282  51.828  1.00  0.00     0.083 A 
HETATM    4  C3  UNL     1      18.795   1.121  51.325  1.00  0.00     0.066 A 
HETATM    5  S1  UNL     1      20.315   0.698  52.232  1.00  0.00    -0.063 SA
HETATM    6  C4  UNL     1      21.910   0.912  51.872  1.00  0.00     0.013 C 
HETATM    7  C11 UNL     1      23.270   0.746  52.156  1.00  0.00     0.095 C 
HETATM    8  C12 UNL     1      24.328   0.350  52.824  1.00  0.00     0.057 A 
HETATM    9  N1  UNL     1      25.147   0.897  51.912  1.00  0.00    -0.245 NA
HETATM   10  C13 UNL     1      26.502   0.808  51.991  1.00  0.00     0.232 A 
HETATM   11  N2  UNL     1      27.035   0.151  53.015  1.00  0.00    -0.253 NA
HETATM   12  C14 UNL     1      26.227  -0.392  53.923  1.00  0.00     0.131 A 
HETATM   13  C15 UNL     1      24.863  -0.330  53.891  1.00  0.00     0.004 A 
HETATM   14  C16 UNL     1      24.257  -0.890  54.894  1.00  0.00     0.004 C 
HETATM   15  C17 UNL     1      22.949  -1.147  55.490  1.00  0.00     0.145 C 
HETATM   16  N3  UNL     1      22.288  -2.261  54.856  1.00  0.00    -0.201 NA
HETATM   17  O2  UNL     1      21.660  -1.725  53.754  1.00  0.00    -0.285 OA
HETATM   18  C18 UNL     1      20.423  -1.310  54.245  1.00  0.00     0.334 C 
HETATM   19  N4  UNL     1      19.643  -0.608  53.253  1.00  0.00    -0.266 N 
HETATM   20  H13 UNL     1      21.594  -2.719  55.455  1.00  0.00     0.154 HD
ENDROOT
BRANCH   6  21
HETATM   21  C5  UNL     1      22.212   1.573  50.581  1.00  0.00    -0.020 A 
HETATM   22  C6  UNL     1      21.756   1.038  49.383  1.00  0.00     0.012 A 
HETATM   23  C7  UNL     1      21.949   1.557  48.103  1.00  0.00     0.002 A 
HETATM   24  C8  UNL     1      22.678   2.728  48.086  1.00  0.00     0.019 A 
HETATM   25  C9  UNL     1      23.178   3.348  49.205  1.00  0.00     0.011 A 
HETATM   26 BR1  UNL     1      24.179   4.966  49.138  1.00  0.00    -0.051 Br
HETATM   27  C10 UNL     1      22.928   2.743  50.442  1.00  0.00     0.031 A 
ENDBRANCH   6  21
TORSDOF 1
ENDMDL
