ROOT
HETATM    1  O1  UNL     1      22.836  -1.797  55.490  1.00  0.00    -0.271 OA
HETATM    2  C1  UNL     1      22.241  -1.151  54.547  1.00  0.00     0.248 C 
HETATM    3  C2  UNL     1      20.815  -1.403  54.243  1.00  0.00     0.279 C 
HETATM    4  O2  UNL     1      20.139  -0.445  53.474  1.00  0.00    -0.340 OA
HETATM    5  C3  UNL     1      20.801   0.516  52.777  1.00  0.00     0.100 C 
HETATM    6  C4  UNL     1      20.421   1.499  51.885  1.00  0.00     0.066 C 
HETATM    7  C5  UNL     1      21.499   2.342  51.383  1.00  0.00     0.044 C 
HETATM    8  N1  UNL     1      21.934   3.570  51.452  1.00  0.00    -0.246 NA
HETATM    9  C6  UNL     1      23.325   3.625  52.167  1.00  0.00     0.233 C 
HETATM   10  N2  UNL     1      23.908   2.419  52.616  1.00  0.00    -0.244 NA
HETATM   11  C7  UNL     1      22.985   1.361  52.315  1.00  0.00     0.071 C 
HETATM   12  C8  UNL     1      22.292   0.517  53.073  1.00  0.00     0.096 C 
HETATM   13  N3  UNL     1      23.141  -0.215  53.898  1.00  0.00    -0.312 N 
HETATM   14  C17 UNL     1      22.641   1.502  50.758  1.00  0.00     0.121 C 
ENDROOT
BRANCH  13  15
HETATM   15  C9  UNL     1      24.530   0.124  53.973  1.00  0.00     0.134 C 
BRANCH  15  16
HETATM   16  C10 UNL     1      25.384  -1.008  53.378  1.00  0.00     0.040 C 
BRANCH  16  17
HETATM   17  C11 UNL     1      26.222  -0.387  52.294  1.00  0.00     0.118 C 
BRANCH  17  18
HETATM   18  N4  UNL     1      27.410   0.244  52.686  1.00  0.00    -0.412 N 
HETATM   19  C12 UNL     1      28.196  -0.401  53.675  1.00  0.00     0.117 C 
HETATM   20  C13 UNL     1      29.542   0.297  53.714  1.00  0.00     0.019 C 
HETATM   21  C14 UNL     1      29.339   1.699  54.241  1.00  0.00     0.003 C 
HETATM   22  C15 UNL     1      28.062   2.333  53.799  1.00  0.00     0.019 C 
HETATM   23  C16 UNL     1      27.541   1.641  52.546  1.00  0.00     0.117 C 
ENDBRANCH  17  18
ENDBRANCH  16  17
ENDBRANCH  15  16
ENDBRANCH  13  15
TORSDOF 4
ENDMDL
