ROOT
HETATM    1  C1  UNL     1      26.567   0.676  54.152  1.00  0.00     0.224 C 
HETATM    2  C2  UNL     1      25.585  -0.129  54.701  1.00  0.00    -0.067 C 
HETATM    3  C3  UNL     1      24.776  -0.777  55.129  1.00  0.00    -0.024 C 
HETATM    4  C4  UNL     1      23.759  -1.567  55.641  1.00  0.00     0.426 A 
HETATM    5  O2  UNL     1      22.610  -1.965  55.599  1.00  0.00    -0.134 OA
HETATM    6  N2  UNL     1      22.835  -1.083  54.603  1.00  0.00     0.115 N 
HETATM    7  C5  UNL     1      21.788  -0.663  53.592  1.00  0.00     0.199 A 
HETATM    8  C6  UNL     1      20.533  -0.863  53.950  1.00  0.00     0.015 C 
HETATM    9  C7  UNL     1      19.272  -0.606  53.316  1.00  0.00     0.018 C 
HETATM   10  C8  UNL     1      19.088  -0.034  52.141  1.00  0.00     0.117 C 
HETATM   11  N3  UNL     1      19.535   0.575  50.952  1.00  0.00    -0.254 NA
HETATM   12  C9  UNL     1      20.606   1.260  50.915  1.00  0.00     0.232 C 
HETATM   13  N4  UNL     1      21.756   1.840  51.438  1.00  0.00    -0.250 NA
HETATM   14  C10 UNL     1      22.679   1.131  52.083  1.00  0.00     0.021 C 
HETATM   15  C11 UNL     1      23.993   1.296  52.772  1.00  0.00     0.048 C 
HETATM   16  C12 UNL     1      24.877   2.258  53.112  1.00  0.00     0.004 C 
HETATM   17  C13 UNL     1      26.137   2.109  53.812  1.00  0.00     0.052 C 
HETATM   18  C14 UNL     1      22.147  -0.214  52.158  1.00  0.00     0.100 C 
HETATM   19  H4  UNL     1      22.823  -0.271  53.996  1.00  0.00     0.362 HD
ENDROOT
BRANCH   1  20
HETATM   20  O1  UNL     1      27.704   0.778  54.952  1.00  0.00    -0.291 OA
BRANCH  20  21
HETATM   21  N1  UNL     1      28.450  -0.345  54.932  1.00  0.00    -0.214 NA
HETATM   22  H1  UNL     1      28.700  -0.620  53.972  1.00  0.00     0.150 HD
HETATM   23  H2  UNL     1      29.289  -0.197  55.520  1.00  0.00     0.150 HD
ENDBRANCH  20  21
ENDBRANCH   1  20
TORSDOF 2
ENDMDL
