ROOT
HETATM    1  N2  UNL     1      26.065   1.142  53.659  1.00  0.00    -0.242 NA
HETATM    2  C3  UNL     1      24.900   0.816  53.215  1.00  0.00     0.072 A 
HETATM    3  C4  UNL     1      24.065  -0.304  53.629  1.00  0.00     0.072 A 
HETATM    4  C5  UNL     1      22.882  -0.504  53.070  1.00  0.00     0.103 A 
HETATM    5  C7  UNL     1      22.331   0.354  52.027  1.00  0.00     0.102 A 
HETATM    6  C9  UNL     1      23.020   1.397  51.589  1.00  0.00     0.054 A 
HETATM    7  C10 UNL     1      24.346   1.684  52.164  1.00  0.00     0.011 A 
HETATM    8  C11 UNL     1      25.021   2.718  51.723  1.00  0.00     0.102 C 
ENDROOT
BRANCH   8   9
HETATM    9  N3  UNL     1      24.729   3.699  50.737  1.00  0.00    -0.365 N 
HETATM   10  H14 UNL     1      23.698   3.859  50.566  1.00  0.00     0.165 HD
BRANCH   9  11
HETATM   11  C12 UNL     1      25.655   4.457  49.986  1.00  0.00     0.033 A 
HETATM   12  C13 UNL     1      26.766   3.904  49.379  1.00  0.00     0.032 A 
HETATM   13  C14 UNL     1      27.624   4.684  48.669  1.00  0.00     0.046 A 
HETATM   14  C15 UNL     1      27.377   6.037  48.556  1.00  0.00     0.138 A 
HETATM   15  F1  UNL     1      28.241   6.806  47.843  1.00  0.00    -0.204 F 
HETATM   16  C16 UNL     1      26.270   6.588  49.160  1.00  0.00     0.074 A 
HETATM   17 CL1  UNL     1      25.974   8.325  49.002  1.00  0.00    -0.081 Cl
HETATM   18  C17 UNL     1      25.391   5.809  49.885  1.00  0.00     0.056 A 
ENDBRANCH   9  11
ENDBRANCH   8   9
BRANCH   1  19
HETATM   19  C2  UNL     1      26.720   0.402  54.667  1.00  0.00     0.226 C 
HETATM   20  N1  UNL     1      27.853  -0.125  54.990  1.00  0.00    -0.287 NA
HETATM   21  C1  UNL     1      28.988  -0.011  54.102  1.00  0.00     0.179 C 
ENDBRANCH   1  19
BRANCH   5  22
HETATM   22  O2  UNL     1      21.109   0.169  51.434  1.00  0.00    -0.353 OA
HETATM   23  C8  UNL     1      19.900   0.767  51.794  1.00  0.00     0.210 C 
ENDBRANCH   5  22
BRANCH   4  24
HETATM   24  O1  UNL     1      22.106  -1.579  53.483  1.00  0.00    -0.353 OA
HETATM   25  C6  UNL     1      21.250  -1.342  54.608  1.00  0.00     0.210 C 
ENDBRANCH   4  24
TORSDOF 5
ENDMDL
