ROOT
HETATM    1  C4  UNL     1      20.197   1.145  51.760  1.00  0.00     0.160 C 
HETATM    2  O1  UNL     1      20.847   2.085  50.945  1.00  0.00    -0.340 OA
HETATM    3  C5  UNL     1      22.199   2.301  51.006  1.00  0.00     0.105 A 
HETATM    4  C6  UNL     1      22.952   2.884  50.009  1.00  0.00     0.072 A 
HETATM    5  C7  UNL     1      24.311   3.045  50.196  1.00  0.00     0.075 A 
HETATM    6  N1  UNL     1      25.052   3.610  49.232  1.00  0.00    -0.241 NA
HETATM    7  C8  UNL     1      26.383   3.747  49.461  1.00  0.00     0.236 A 
HETATM    8  N2  UNL     1      26.936   3.330  50.615  1.00  0.00    -0.224 NA
HETATM    9  C9  UNL     1      26.213   2.757  51.602  1.00  0.00     0.142 A 
HETATM   10  C16 UNL     1      24.857   2.604  51.397  1.00  0.00     0.042 A 
HETATM   11  C17 UNL     1      24.139   2.018  52.418  1.00  0.00     0.057 A 
HETATM   12  C18 UNL     1      22.766   1.874  52.188  1.00  0.00     0.103 A 
HETATM   13  O2  UNL     1      22.036   1.284  53.209  1.00  0.00    -0.338 OA
HETATM   14  C19 UNL     1      20.601   1.307  53.203  1.00  0.00     0.182 C 
ENDROOT
BRANCH   9  15
HETATM   15  N3  UNL     1      26.922   2.362  52.770  1.00  0.00    -0.340 N 
HETATM   16  H11 UNL     1      26.730   3.098  53.485  1.00  0.00     0.167 HD
BRANCH  15  17
HETATM   17  C10 UNL     1      27.744   1.227  53.014  1.00  0.00     0.035 A 
HETATM   18  C11 UNL     1      29.017   1.426  53.524  1.00  0.00     0.029 A 
HETATM   19  C12 UNL     1      29.751   0.266  53.732  1.00  0.00     0.004 A 
HETATM   20  C13 UNL     1      29.272  -1.001  53.459  1.00  0.00     0.024 A 
HETATM   21  C14 UNL     1      27.994  -1.129  52.952  1.00  0.00     0.036 A 
HETATM   22 CL1  UNL     1      27.423  -2.744  52.621  1.00  0.00    -0.084 Cl
HETATM   23  C15 UNL     1      27.214  -0.014  52.723  1.00  0.00     0.053 A 
ENDBRANCH  15  17
ENDBRANCH   9  15
BRANCH  14  24
HETATM   24  C20 UNL     1      20.165   0.111  54.022  1.00  0.00     0.202 C 
BRANCH  24  25
HETATM   25  O3  UNL     1      21.281  -0.304  54.759  1.00  0.00    -0.393 OA
HETATM   26  C21 UNL     1      21.542  -1.661  54.518  1.00  0.00     0.201 C 
ENDBRANCH  24  25
ENDBRANCH  14  24
BRANCH   1  27
HETATM   27  C3  UNL     1      18.701   1.202  51.564  1.00  0.00     0.035 C 
BRANCH  27  28
HETATM   28  C2  UNL     1      18.167  -0.061  50.953  1.00  0.00    -0.002 C 
HETATM   29  C1  UNL     1      17.432  -0.871  51.967  1.00  0.00     0.005 C 
ENDBRANCH  27  28
ENDBRANCH   1  27
TORSDOF 6
ENDMDL
