ROOT
HETATM    1  C2  UNL     1      16.599  -0.036  52.236  1.00  0.00     0.026 A 
HETATM    2  C3  UNL     1      16.835   0.671  51.081  1.00  0.00     0.017 A 
HETATM    3  C4  UNL     1      18.129   0.810  50.622  1.00  0.00     0.010 A 
HETATM    4  C5  UNL     1      19.197   0.254  51.296  1.00  0.00    -0.031 A 
HETATM    5  C6  UNL     1      19.006  -0.467  52.464  1.00  0.00    -0.029 A 
HETATM    6  C7  UNL     1      17.683  -0.582  52.890  1.00  0.00     0.026 A 
HETATM    7  C8  UNL     1      20.112  -1.101  53.254  1.00  0.00     0.187 C 
HETATM    8  N2  UNL     1      21.319  -0.401  52.854  1.00  0.00    -0.299 N 
HETATM    9  C9  UNL     1      22.428  -0.817  53.674  1.00  0.00     0.137 C 
HETATM   10  C10 UNL     1      23.631  -0.248  53.860  1.00  0.00     0.084 C 
HETATM   11 CL1  UNL     1      24.811  -0.959  54.916  1.00  0.00    -0.080 Cl
HETATM   12  C11 UNL     1      24.072   0.990  53.222  1.00  0.00     0.090 C 
HETATM   13  C19 UNL     1      23.370   1.883  52.530  1.00  0.00     0.033 C 
HETATM   14  C20 UNL     1      21.917   1.813  52.244  1.00  0.00     0.173 C 
HETATM   15  N3  UNL     1      21.456   0.530  51.852  1.00  0.00    -0.318 N 
HETATM   16  C21 UNL     1      20.584   0.436  50.753  1.00  0.00     0.182 C 
ENDROOT
BRANCH  12  17
HETATM   17  O2  UNL     1      25.412   1.369  53.298  1.00  0.00    -0.345 OA
BRANCH  17  18
HETATM   18  C12 UNL     1      26.319   1.238  52.246  1.00  0.00     0.214 C 
BRANCH  18  19
HETATM   19  C13 UNL     1      27.422   0.338  52.715  1.00  0.00    -0.031 A 
HETATM   20  C14 UNL     1      28.534   0.935  53.305  1.00  0.00     0.009 A 
HETATM   21  C15 UNL     1      29.642   0.276  53.795  1.00  0.00     0.004 A 
HETATM   22  C16 UNL     1      29.610  -1.094  53.674  1.00  0.00     0.042 A 
HETATM   23  C17 UNL     1      28.526  -1.723  53.096  1.00  0.00     0.117 A 
HETATM   24  F1  UNL     1      28.525  -3.093  52.990  1.00  0.00    -0.206 F 
HETATM   25  C18 UNL     1      27.424  -1.034  52.611  1.00  0.00     0.051 A 
ENDBRANCH  18  19
ENDBRANCH  17  18
ENDBRANCH  12  17
BRANCH   1  26
HETATM   26  C1  UNL     1      15.245  -0.197  52.741  1.00  0.00     0.228 C 
HETATM   27  N1  UNL     1      14.670  -1.481  52.822  1.00  0.00    -0.268 NA
HETATM   28  H1  UNL     1      14.190  -2.214  52.251  1.00  0.00     0.127 HD
HETATM   29  H2  UNL     1      14.197  -2.133  52.128  1.00  0.00     0.127 HD
HETATM   30  O1  UNL     1      14.607   0.851  53.101  1.00  0.00    -0.274 OA
ENDBRANCH   1  26
TORSDOF 4
ENDMDL
