ROOT
HETATM    1  C12 UNL     1      24.506   3.003  52.479  1.00  0.00     0.044 A 
HETATM    2  C13 UNL     1      25.294   2.450  53.567  1.00  0.00     0.195 A 
HETATM    3  N1  UNL     1      26.504   1.858  53.260  1.00  0.00    -0.278 NA
HETATM    4  C14 UNL     1      27.202   1.705  52.298  1.00  0.00     0.229 A 
HETATM    5  N2  UNL     1      26.520   2.308  51.272  1.00  0.00    -0.224 NA
HETATM    6  C15 UNL     1      25.399   2.871  51.303  1.00  0.00     0.140 A 
ENDROOT
BRANCH   1   7
HETATM    7  C11 UNL     1      23.404   3.479  51.889  1.00  0.00     0.114 C 
HETATM    8  C8  UNL     1      22.138   2.826  51.701  1.00  0.00     0.105 C 
HETATM    9  O2  UNL     1      21.045   3.319  51.040  1.00  0.00    -0.346 OA
HETATM   10  C9  UNL     1      20.699   4.688  51.062  1.00  0.00     0.202 C 
HETATM   11  C10 UNL     1      21.900   5.384  51.662  1.00  0.00     0.202 C 
HETATM   12  O3  UNL     1      23.026   4.636  51.243  1.00  0.00    -0.345 OA
BRANCH   8  13
HETATM   13  C6  UNL     1      21.782   1.626  52.110  1.00  0.00    -0.041 C 
HETATM   14  C7  UNL     1      21.770   0.557  51.089  1.00  0.00     0.047 C 
BRANCH  13  15
HETATM   15  C3  UNL     1      21.711   0.784  53.279  1.00  0.00     0.040 C 
BRANCH  15  16
HETATM   16  C2  UNL     1      22.494  -0.531  53.055  1.00  0.00     0.007 C 
HETATM   17  C1  UNL     1      23.600  -0.749  54.010  1.00  0.00     0.006 C 
ENDBRANCH  15  16
BRANCH  15  18
HETATM   18  C4  UNL     1      20.459   0.488  53.996  1.00  0.00     0.176 C 
BRANCH  18  19
HETATM   19  O1  UNL     1      20.080  -0.827  53.671  1.00  0.00    -0.395 OA
HETATM   20  C5  UNL     1      18.792  -1.001  53.294  1.00  0.00     0.201 C 
ENDBRANCH  18  19
ENDBRANCH  15  18
ENDBRANCH  13  15
ENDBRANCH   8  13
ENDBRANCH   1   7
BRANCH   6  21
HETATM   21  N3  UNL     1      25.287   3.370  49.912  1.00  0.00    -0.340 N 
HETATM   22  H22 UNL     1      24.700   2.710  49.320  1.00  0.00     0.167 HD
BRANCH  21  23
HETATM   23  C16 UNL     1      25.830   4.578  49.317  1.00  0.00     0.034 A 
HETATM   24  C17 UNL     1      25.157   5.751  49.039  1.00  0.00     0.029 A 
HETATM   25  C18 UNL     1      25.866   6.785  48.472  1.00  0.00     0.003 A 
HETATM   26  C19 UNL     1      27.206   6.683  48.180  1.00  0.00     0.007 A 
HETATM   27  C20 UNL     1      27.916   5.511  48.448  1.00  0.00    -0.060 A 
HETATM   28  C21 UNL     1      29.361   5.389  48.139  1.00  0.00     0.048 C 
HETATM   29  C22 UNL     1      27.183   4.469  49.024  1.00  0.00     0.036 A 
ENDBRANCH  21  23
ENDBRANCH   6  21
TORSDOF 8
ENDMDL
