ROOT
HETATM    1  C1  UNL     1      24.942   2.503  53.586  1.00  0.00     0.048 C 
HETATM    2  C2  UNL     1      25.490   1.857  52.305  1.00  0.00     0.087 A 
HETATM    3  C3  UNL     1      25.514   2.689  51.220  1.00  0.00     0.109 A 
HETATM    4  C4  UNL     1      26.816   2.641  51.884  1.00  0.00     0.086 A 
HETATM    5  C5  UNL     1      27.381   1.988  53.000  1.00  0.00     0.146 C 
HETATM    6  C6  UNL     1      27.060   0.502  53.052  1.00  0.00     0.284 C 
HETATM    7  N1  UNL     1      26.070   0.115  54.020  1.00  0.00    -0.243 NA
HETATM    8  C7  UNL     1      25.784  -1.096  54.316  1.00  0.00     0.259 C 
HETATM    9  O2  UNL     1      24.748  -1.358  55.299  1.00  0.00    -0.269 OA
HETATM   10  C8  UNL     1      23.445  -0.937  54.926  1.00  0.00     0.288 C 
HETATM   11  O3  UNL     1      24.071  -0.581  53.925  1.00  0.00    -0.260 OA
HETATM   12  C9  UNL     1      22.084  -0.473  54.483  1.00  0.00     0.082 C 
HETATM   13  C10 UNL     1      21.989   0.149  53.314  1.00  0.00     0.011 C 
HETATM   14  C11 UNL     1      21.597   0.844  52.095  1.00  0.00     0.064 C 
HETATM   15  C12 UNL     1      21.851   1.432  50.898  1.00  0.00     0.186 C 
HETATM   16  O5  UNL     1      23.210   1.466  50.481  1.00  0.00    -0.255 OA
HETATM   17  C13 UNL     1      24.138   2.270  51.114  1.00  0.00     0.279 C 
HETATM   18  O6  UNL     1      23.073   2.575  51.718  1.00  0.00    -0.264 OA
HETATM   19  O7  UNL     1      26.009   0.561  51.922  1.00  0.00    -0.349 OA
ENDROOT
BRANCH   5  20
HETATM   20  O1  UNL     1      28.104   2.871  53.795  1.00  0.00    -0.381 OA
HETATM   21  H5  UNL     1      28.377   2.565  54.708  1.00  0.00     0.211 HD
ENDBRANCH   5  20
BRANCH  15  22
HETATM   22  O4  UNL     1      20.706   1.900  50.312  1.00  0.00    -0.341 OA
HETATM   23  H11 UNL     1      20.346   1.384  49.492  1.00  0.00     0.220 HD
ENDBRANCH  15  22
TORSDOF 2
ENDMDL
