ROOT
HETATM    1  C1  UNL     1      23.426   3.352  52.575  1.00  0.00     0.047 C 
HETATM    2  C2  UNL     1      24.230   3.926  51.437  1.00  0.00    -0.030 C 
HETATM    3  C3  UNL     1      25.220   3.039  51.160  1.00  0.00     0.010 C 
HETATM    4  C10 UNL     1      26.419   2.965  50.283  1.00  0.00     0.019 C 
HETATM    5  C11 UNL     1      27.060   3.709  49.412  1.00  0.00     0.003 C 
HETATM    6  C12 UNL     1      27.162   4.985  48.686  1.00  0.00     0.020 C 
HETATM    7  C13 UNL     1      26.315   6.071  48.795  1.00  0.00     0.050 C 
HETATM    8  C14 UNL     1      26.513   7.267  48.028  1.00  0.00     0.097 C 
HETATM    9  N1  UNL     1      26.677   8.215  47.398  1.00  0.00    -0.192 NA
HETATM   10  C15 UNL     1      25.291   5.837  49.765  1.00  0.00     0.320 C 
HETATM   11  N2  UNL     1      23.963   5.726  49.748  1.00  0.00     0.100 NA
HETATM   12  C16 UNL     1      23.601   5.232  51.084  1.00  0.00     0.275 C 
HETATM   13  H14 UNL     1      23.568   5.061  49.048  1.00  0.00     0.317 HD
ENDROOT
BRANCH  12  14
HETATM   14  C17 UNL     1      22.104   4.919  50.990  1.00  0.00     0.029 C 
HETATM   15  C18 UNL     1      21.307   5.975  51.051  1.00  0.00     0.078 C 
BRANCH  15  16
HETATM   16  N3  UNL     1      21.899   7.261  51.193  1.00  0.00    -0.408 N 
HETATM   17  H18 UNL     1      21.441   8.209  51.180  1.00  0.00     0.155 HD
HETATM   18  H19 UNL     1      22.890   7.544  51.335  1.00  0.00     0.155 HD
ENDBRANCH  15  16
ENDBRANCH  12  14
BRANCH   3  19
HETATM   19  S1  UNL     1      24.975   1.698  52.307  1.00  0.00    -0.087 SA
BRANCH  19  20
HETATM   20  C4  UNL     1      26.464   0.941  52.842  1.00  0.00     0.038 A 
HETATM   21  C5  UNL     1      26.585  -0.381  52.400  1.00  0.00     0.024 A 
HETATM   22  C6  UNL     1      27.721  -1.123  52.745  1.00  0.00     0.038 A 
HETATM   23  C7  UNL     1      28.718  -0.562  53.515  1.00  0.00     0.068 A 
HETATM   24  C8  UNL     1      28.597   0.756  53.955  1.00  0.00     0.074 A 
HETATM   25  C9  UNL     1      27.479   1.489  53.616  1.00  0.00     0.085 A 
BRANCH  23  26
HETATM   26  O1  UNL     1      29.859  -1.261  53.880  1.00  0.00    -0.361 OA
HETATM   27  H6  UNL     1      30.648  -1.398  53.257  1.00  0.00     0.217 HD
ENDBRANCH  23  26
BRANCH  25  28
HETATM   28  O2  UNL     1      27.199   2.803  53.967  1.00  0.00    -0.359 OA
HETATM   29  H8  UNL     1      26.688   3.338  53.247  1.00  0.00     0.217 HD
ENDBRANCH  25  28
ENDBRANCH  19  20
ENDBRANCH   3  19
TORSDOF 6
ENDMDL
