ROOT
HETATM    1  C7  UNL     1      24.459   1.438  53.032  1.00  0.00     0.107 A 
HETATM    2  C8  UNL     1      22.952   1.491  52.971  1.00  0.00     0.014 A 
HETATM    3  C9  UNL     1      22.138   1.951  52.027  1.00  0.00     0.142 A 
HETATM    4  O2  UNL     1      22.734   2.478  50.893  1.00  0.00    -0.301 OA
HETATM    5  C10 UNL     1      24.117   2.494  50.814  1.00  0.00     0.182 A 
HETATM    6  C18 UNL     1      24.930   2.024  51.779  1.00  0.00     0.053 A 
ENDROOT
BRANCH   1   7
HETATM    7  C6  UNL     1      24.918   0.048  53.283  1.00  0.00     0.144 C 
HETATM    8  O1  UNL     1      23.990  -0.788  53.586  1.00  0.00    -0.296 OA
BRANCH   7   9
HETATM    9  C2  UNL     1      26.357  -0.329  53.184  1.00  0.00     0.035 C 
HETATM   10  C1  UNL     1      26.554  -1.359  52.331  1.00  0.00     0.063 C 
BRANCH   9  11
HETATM   11  C3  UNL     1      27.190   0.520  54.060  1.00  0.00     0.284 C 
BRANCH  11  12
HETATM   12  N1  UNL     1      28.377   0.953  53.372  1.00  0.00     0.080 N 
HETATM   13  C4  UNL     1      28.580   2.399  53.566  1.00  0.00     0.309 C 
HETATM   14  C5  UNL     1      29.590   0.262  53.801  1.00  0.00     0.309 C 
ENDBRANCH  11  12
ENDBRANCH   9  11
ENDBRANCH   7   9
ENDBRANCH   1   7
BRANCH   5  15
HETATM   15  O3  UNL     1      24.763   3.012  49.700  1.00  0.00    -0.326 OA
BRANCH  15  16
HETATM   16  C11 UNL     1      26.144   3.293  49.826  1.00  0.00     0.216 C 
BRANCH  16  17
HETATM   17  C12 UNL     1      26.552   4.565  49.187  1.00  0.00    -0.034 A 
HETATM   18  C13 UNL     1      27.815   4.834  48.709  1.00  0.00     0.009 A 
HETATM   19  C14 UNL     1      28.055   6.068  48.133  1.00  0.00     0.001 A 
HETATM   20  C15 UNL     1      27.028   7.002  48.049  1.00  0.00     0.000 A 
HETATM   21  C16 UNL     1      25.761   6.748  48.522  1.00  0.00     0.001 A 
HETATM   22  C17 UNL     1      25.515   5.502  49.105  1.00  0.00     0.009 A 
ENDBRANCH  16  17
ENDBRANCH  15  16
ENDBRANCH   5  15
TORSDOF 7
ENDMDL
