ROOT
HETATM    1  C5  UNL     1      26.414   0.330  52.461  1.00  0.00     0.107 A 
HETATM    2  C6  UNL     1      26.841   1.412  51.685  1.00  0.00     0.072 A 
HETATM    3  C7  UNL     1      25.956   2.352  51.137  1.00  0.00     0.070 A 
HETATM    4  C8  UNL     1      24.641   2.081  51.451  1.00  0.00     0.016 A 
HETATM    5  C9  UNL     1      24.236   1.020  52.210  1.00  0.00     0.114 A 
HETATM    6  C10 UNL     1      25.105   0.107  52.742  1.00  0.00     0.136 A 
HETATM    7  O3  UNL     1      24.435  -0.841  53.450  1.00  0.00    -0.344 OA
HETATM    8  C11 UNL     1      23.255  -0.678  54.173  1.00  0.00     0.202 C 
HETATM    9  C12 UNL     1      22.296   0.296  53.530  1.00  0.00     0.202 C 
HETATM   10  O4  UNL     1      22.876   0.933  52.405  1.00  0.00    -0.345 OA
HETATM   11  C13 UNL     1      24.005   3.046  50.870  1.00  0.00     0.066 C 
HETATM   12  C14 UNL     1      23.120   4.022  50.307  1.00  0.00    -0.065 C 
HETATM   13  C15 UNL     1      22.790   5.231  50.872  1.00  0.00    -0.002 C 
HETATM   14  C16 UNL     1      23.720   6.171  50.107  1.00  0.00     0.174 C 
HETATM   15  N1  UNL     1      24.350   5.422  49.039  1.00  0.00    -0.281 N 
HETATM   16  N2  UNL     1      25.748   5.284  49.155  1.00  0.00    -0.169 NA
HETATM   17  C17 UNL     1      26.240   4.276  49.801  1.00  0.00     0.255 C 
HETATM   18  N3  UNL     1      26.692   3.177  50.503  1.00  0.00    -0.240 NA
HETATM   19  C18 UNL     1      23.263   4.974  48.135  1.00  0.00     0.208 C 
HETATM   20 CL1  UNL     1      22.312   6.408  47.730  1.00  0.00    -0.100 Cl
HETATM   21  C19 UNL     1      22.424   3.948  48.942  1.00  0.00     0.050 C 
HETATM   22  C20 UNL     1      22.464   2.587  48.358  1.00  0.00     0.018 C 
ENDROOT
BRANCH   1  23
HETATM   23  O2  UNL     1      27.330  -0.532  52.956  1.00  0.00    -0.341 OA
BRANCH  23  24
HETATM   24  C3  UNL     1      28.590  -0.417  53.440  1.00  0.00     0.148 C 
HETATM   25  C4  UNL     1      29.391  -1.720  53.368  1.00  0.00     0.042 C 
BRANCH  24  26
HETATM   26  C2  UNL     1      28.639  -0.037  54.927  1.00  0.00     0.199 C 
BRANCH  26  27
HETATM   27  O1  UNL     1      28.424   1.337  55.006  1.00  0.00    -0.393 OA
HETATM   28  C1  UNL     1      29.425   1.989  54.300  1.00  0.00     0.201 C 
ENDBRANCH  26  27
ENDBRANCH  24  26
ENDBRANCH  23  24
ENDBRANCH   1  23
TORSDOF 4
ENDMDL
