ROOT
HETATM    1  C5  UNL     1      27.149   7.160  48.241  1.00  0.00    -0.051 A 
HETATM    2  C6  UNL     1      26.160   6.902  49.114  1.00  0.00     0.039 A 
HETATM    3  C7  UNL     1      25.824   5.672  49.786  1.00  0.00     0.087 A 
HETATM    4  N2  UNL     1      24.878   5.468  50.607  1.00  0.00    -0.173 NA
HETATM    5  N3  UNL     1      24.700   4.191  51.170  1.00  0.00    -0.262 N 
HETATM    6  C8  UNL     1      25.543   3.054  50.874  1.00  0.00     0.122 A 
HETATM    7  C15 UNL     1      26.552   3.185  50.028  1.00  0.00     0.063 A 
HETATM    8  C16 UNL     1      26.695   4.519  49.475  1.00  0.00    -0.005 A 
HETATM    9  C17 UNL     1      27.651   4.825  48.615  1.00  0.00    -0.002 A 
HETATM   10  C18 UNL     1      28.049   6.046  47.898  1.00  0.00     0.063 A 
HETATM   11  H12 UNL     1      23.931   3.985  51.853  1.00  0.00     0.191 HD
ENDROOT
BRANCH   6  12
HETATM   12  N4  UNL     1      25.333   1.772  51.459  1.00  0.00    -0.341 N 
HETATM   13  H13 UNL     1      24.373   1.490  51.190  1.00  0.00     0.167 HD
BRANCH  12  14
HETATM   14  C9  UNL     1      26.457   1.289  52.202  1.00  0.00     0.035 A 
HETATM   15  C10 UNL     1      27.319   2.120  52.884  1.00  0.00     0.032 A 
HETATM   16  C11 UNL     1      28.357   1.480  53.548  1.00  0.00     0.046 A 
HETATM   17  C12 UNL     1      28.481   0.114  53.507  1.00  0.00     0.138 A 
HETATM   18  F1  UNL     1      29.524  -0.462  54.178  1.00  0.00    -0.204 F 
HETATM   19  C13 UNL     1      27.606  -0.709  52.816  1.00  0.00     0.074 A 
HETATM   20 CL1  UNL     1      27.801  -2.440  52.786  1.00  0.00    -0.081 Cl
HETATM   21  C14 UNL     1      26.561  -0.083  52.144  1.00  0.00     0.056 A 
ENDBRANCH  12  14
ENDBRANCH   6  12
BRANCH  10  22
HETATM   22  C19 UNL     1      29.508   6.286  48.244  1.00  0.00     0.177 C 
BRANCH  22  23
HETATM   23  O1  UNL     1      29.748   5.384  49.318  1.00  0.00    -0.400 OA
HETATM   24  H22 UNL     1      28.930   4.821  49.475  1.00  0.00     0.209 HD
ENDBRANCH  22  23
ENDBRANCH  10  22
BRANCH   1  25
HETATM   25  C4  UNL     1      27.169   8.570  47.754  1.00  0.00     0.151 C 
BRANCH  25  26
HETATM   26  N1  UNL     1      27.370   9.583  48.691  1.00  0.00    -0.413 N 
HETATM   27  C3  UNL     1      26.535  10.734  48.634  1.00  0.00     0.143 C 
BRANCH  26  28
HETATM   28  C2  UNL     1      28.395   9.552  49.637  1.00  0.00     0.112 C 
HETATM   29  C1  UNL     1      29.754   9.954  49.102  1.00  0.00     0.026 C 
ENDBRANCH  26  28
ENDBRANCH  25  26
ENDBRANCH   1  25
TORSDOF 7
ENDMDL
