ROOT
HETATM    1  C8  UNL     1      22.026   1.327  50.689  1.00  0.00     0.014 A 
HETATM    2  C9  UNL     1      20.806   0.719  50.917  1.00  0.00     0.022 A 
HETATM    3  C10 UNL     1      20.560  -0.094  52.006  1.00  0.00     0.034 A 
HETATM    4  C11 UNL     1      21.572  -0.331  52.940  1.00  0.00     0.072 A 
HETATM    5  N2  UNL     1      21.440  -1.096  54.038  1.00  0.00    -0.241 NA
HETATM    6  C12 UNL     1      22.497  -1.246  54.877  1.00  0.00     0.236 A 
HETATM    7  N3  UNL     1      23.692  -0.636  54.631  1.00  0.00    -0.223 NA
HETATM    8  C13 UNL     1      23.864   0.150  53.524  1.00  0.00     0.143 A 
HETATM    9  C19 UNL     1      22.781   0.284  52.695  1.00  0.00     0.040 A 
HETATM   10  C20 UNL     1      23.009   1.091  51.604  1.00  0.00     0.037 A 
ENDROOT
BRANCH   1  11
HETATM   11  S1  UNL     1      22.311   2.370  49.277  1.00  0.00    -0.039 SA
BRANCH  11  12
HETATM   12  C7  UNL     1      23.612   3.525  49.564  1.00  0.00    -0.027 C 
HETATM   13  C6  UNL     1      24.495   4.320  49.780  1.00  0.00    -0.064 C 
BRANCH  13  14
HETATM   14  C5  UNL     1      25.576   5.281  50.067  1.00  0.00     0.366 C 
BRANCH  14  15
HETATM   15  N1  UNL     1      26.345   5.607  48.896  1.00  0.00     0.098 N 
BRANCH  15  16
HETATM   16  C2  UNL     1      26.763   6.980  48.874  1.00  0.00     0.269 C 
HETATM   17  C1  UNL     1      26.139   7.696  50.061  1.00  0.00     0.037 C 
ENDBRANCH  15  16
BRANCH  15  18
HETATM   18  C3  UNL     1      27.490   4.757  48.713  1.00  0.00     0.269 C 
HETATM   19  C4  UNL     1      28.726   5.521  48.302  1.00  0.00     0.037 C 
ENDBRANCH  15  18
ENDBRANCH  14  15
ENDBRANCH  13  14
ENDBRANCH  11  12
ENDBRANCH   1  11
BRANCH   8  20
HETATM   20  N4  UNL     1      25.170   0.647  53.455  1.00  0.00    -0.336 N 
HETATM   21  C14 UNL     1      26.071  -0.475  53.319  1.00  0.00     0.120 A 
HETATM   22  C15 UNL     1      27.410  -0.375  53.238  1.00  0.00     0.087 A 
HETATM   23 CL1  UNL     1      28.563  -1.685  53.074  1.00  0.00    -0.080 Cl
HETATM   24  C16 UNL     1      28.022   0.948  53.282  1.00  0.00     0.137 A 
HETATM   25  F1  UNL     1      29.352   1.225  53.214  1.00  0.00    -0.205 F 
HETATM   26  C17 UNL     1      27.199   1.966  53.401  1.00  0.00     0.037 A 
HETATM   27  C18 UNL     1      25.717   1.987  53.499  1.00  0.00     0.160 A 
ENDBRANCH   8  20
TORSDOF 7
ENDMDL
