ROOT
HETATM    1  C1  UNL     1      22.902   1.461  51.122  1.00  0.00     0.118 A 
HETATM    2  N1  UNL     1      21.637   1.210  51.076  1.00  0.00    -0.260 NA
HETATM    3  C2  UNL     1      20.830   0.426  51.948  1.00  0.00     0.070 A 
HETATM    4  C3  UNL     1      19.482   0.363  51.618  1.00  0.00     0.032 A 
HETATM    5  C4  UNL     1      18.624  -0.411  52.407  1.00  0.00     0.005 A 
HETATM    6  C5  UNL     1      19.083  -1.121  53.516  1.00  0.00     0.038 A 
HETATM    7  C6  UNL     1      20.419  -1.079  53.872  1.00  0.00     0.088 A 
HETATM    8  O1  UNL     1      21.176  -1.605  54.818  1.00  0.00    -0.321 OA
HETATM    9  C7  UNL     1      22.426  -1.233  54.696  1.00  0.00     0.155 A 
HETATM   10  C8  UNL     1      22.480  -0.409  53.598  1.00  0.00     0.008 A 
HETATM   11  C9  UNL     1      21.216  -0.299  53.056  1.00  0.00     0.039 A 
HETATM   12  C10 UNL     1      23.742   0.189  53.201  1.00  0.00    -0.043 A 
HETATM   13  C19 UNL     1      23.853   0.985  52.122  1.00  0.00     0.027 A 
ENDROOT
BRANCH  12  14
HETATM   14  C11 UNL     1      25.013  -0.013  53.915  1.00  0.00     0.044 C 
BRANCH  14  15
HETATM   15  C12 UNL     1      26.092   0.968  53.627  1.00  0.00     0.043 C 
BRANCH  15  16
HETATM   16  C13 UNL     1      27.442   0.296  53.554  1.00  0.00    -0.058 A 
HETATM   17  C14 UNL     1      28.619   0.953  53.844  1.00  0.00     0.007 A 
HETATM   18  C15 UNL     1      29.796   0.219  53.739  1.00  0.00     0.001 A 
HETATM   19  C16 UNL     1      29.815  -1.117  53.357  1.00  0.00     0.000 A 
HETATM   20  C17 UNL     1      28.617  -1.768  53.066  1.00  0.00     0.001 A 
HETATM   21  C18 UNL     1      27.456  -1.030  53.175  1.00  0.00     0.007 A 
ENDBRANCH  15  16
ENDBRANCH  14  15
ENDBRANCH  12  14
TORSDOF 3
ENDMDL
