ROOT
HETATM    1  C4  UNL     1      27.144   0.507  53.059  1.00  0.00     0.080 A 
HETATM    2  C5  UNL     1      28.258  -0.262  53.397  1.00  0.00     0.073 A 
HETATM    3  C6  UNL     1      28.298  -1.693  53.238  1.00  0.00     0.102 C 
HETATM    4  N2  UNL     1      28.327  -2.849  53.088  1.00  0.00    -0.191 NA
HETATM    5  C7  UNL     1      29.355   0.427  53.900  1.00  0.00     0.025 A 
HETATM    6  C8  UNL     1      29.395   1.794  54.075  1.00  0.00     0.004 A 
HETATM    7  C9  UNL     1      28.287   2.538  53.735  1.00  0.00     0.032 A 
HETATM    8  C10 UNL     1      27.188   1.873  53.236  1.00  0.00     0.063 A 
ENDROOT
BRANCH   1   9
HETATM    9  N1  UNL     1      26.065  -0.282  52.555  1.00  0.00    -0.363 N 
HETATM   10  H6  UNL     1      26.205  -0.555  51.569  1.00  0.00     0.165 HD
BRANCH   9  11
HETATM   11  C3  UNL     1      24.956  -0.620  53.382  1.00  0.00     0.084 C 
HETATM   12  C2  UNL     1      23.705  -0.235  53.320  1.00  0.00    -0.014 C 
HETATM   13  C1  UNL     1      23.094   0.682  52.344  1.00  0.00     0.037 C 
ENDBRANCH   9  11
ENDBRANCH   1   9
BRANCH   8  14
HETATM   14  N3  UNL     1      25.984   2.552  52.851  1.00  0.00    -0.325 N 
HETATM   15  C11 UNL     1      26.155   2.816  51.474  1.00  0.00     0.226 C 
HETATM   16  O1  UNL     1      27.301   2.350  51.106  1.00  0.00    -0.273 OA
HETATM   17  H10 UNL     1      25.045   2.935  53.142  1.00  0.00     0.169 HD
BRANCH  15  18
HETATM   18  C12 UNL     1      25.384   3.466  50.386  1.00  0.00     0.078 C 
HETATM   19  C13 UNL     1      24.425   4.511  50.835  1.00  0.00     0.014 C 
HETATM   20  C14 UNL     1      23.721   5.070  49.608  1.00  0.00     0.001 C 
HETATM   21  C15 UNL     1      24.730   5.924  48.852  1.00  0.00     0.000 C 
HETATM   22  C16 UNL     1      26.143   5.457  49.023  1.00  0.00     0.001 C 
HETATM   23  C17 UNL     1      26.276   3.990  49.317  1.00  0.00     0.014 C 
ENDBRANCH  15  18
ENDBRANCH   8  14
TORSDOF 4
ENDMDL
