ROOT
HETATM    1  C1  UNL     1      27.165   4.429  48.955  1.00  0.00    -0.017 C 
HETATM    2  C2  UNL     1      26.410   5.567  48.958  1.00  0.00     0.044 C 
HETATM    3  C3  UNL     1      26.552   6.930  48.351  1.00  0.00     0.011 C 
HETATM    4  C4  UNL     1      25.428   7.598  48.718  1.00  0.00     0.045 A 
HETATM    5  N1  UNL     1      24.870   8.925  48.524  1.00  0.00    -0.268 NA
HETATM    6  C5  UNL     1      23.784   8.733  49.131  1.00  0.00     0.107 A 
HETATM    7  C6  UNL     1      24.181   7.315  49.426  1.00  0.00     0.130 A 
HETATM    8  C7  UNL     1      23.229   6.422  48.696  1.00  0.00     0.070 A 
HETATM    9  C8  UNL     1      22.432   6.778  47.598  1.00  0.00     0.049 A 
HETATM   10  C9  UNL     1      21.514   5.943  46.963  1.00  0.00     0.138 A 
HETATM   11  N2  UNL     1      21.346   4.649  47.426  1.00  0.00    -0.075 NA
HETATM   12  C10 UNL     1      22.103   4.348  48.450  1.00  0.00     0.728 A 
HETATM   13  N3  UNL     1      22.980   5.157  49.047  1.00  0.00    -0.066 NA
HETATM   14  N4  UNL     1      22.050   3.120  49.095  1.00  0.00    -0.185 N 
HETATM   15  C11 UNL     1      20.771   2.809  49.713  1.00  0.00     0.116 C 
HETATM   16  C12 UNL     1      20.867   2.434  51.035  1.00  0.00    -0.042 C 
HETATM   17  C13 UNL     1      22.214   2.129  51.400  1.00  0.00     0.013 C 
HETATM   18  C14 UNL     1      23.332   2.115  50.745  1.00  0.00    -0.053 C 
HETATM   19  C15 UNL     1      23.151   2.179  49.241  1.00  0.00     0.182 C 
HETATM   20  C16 UNL     1      24.779   2.074  51.283  1.00  0.00     0.042 C 
HETATM   21  C17 UNL     1      25.414   3.141  50.516  1.00  0.00    -0.018 C 
HETATM   22  C18 UNL     1      26.455   3.441  49.756  1.00  0.00    -0.007 C 
HETATM   23  C19 UNL     1      24.693   2.313  52.754  1.00  0.00     0.040 C 
HETATM   24  C20 UNL     1      23.993   1.087  53.363  1.00  0.00    -0.030 C 
HETATM   25  C21 UNL     1      23.485  -0.175  53.131  1.00  0.00    -0.029 C 
HETATM   26  C22 UNL     1      22.858  -0.890  54.282  1.00  0.00     0.056 C 
HETATM   27  C23 UNL     1      21.391  -1.225  53.931  1.00  0.00     0.273 C 
HETATM   28  N5  UNL     1      20.929  -0.134  53.078  1.00  0.00     0.083 NA
HETATM   29  C24 UNL     1      19.540   0.021  52.924  1.00  0.00     0.270 C 
HETATM   30  C25 UNL     1      19.047   0.951  51.898  1.00  0.00     0.034 C 
HETATM   31  C26 UNL     1      19.566   2.338  51.771  1.00  0.00     0.042 C 
HETATM   32  H23 UNL     1      21.334  -0.406  52.108  1.00  0.00     0.315 HD
ENDROOT
TORSDOF 0
ENDMDL
