ROOT
HETATM    1  C1  UNL     1      23.065   3.727  52.987  1.00  0.00     0.019 C 
HETATM    2  C2  UNL     1      23.406   2.235  52.532  1.00  0.00     0.041 C 
HETATM    3  C3  UNL     1      22.185   1.945  51.886  1.00  0.00    -0.005 C 
HETATM    4  C4  UNL     1      22.086   0.765  51.276  1.00  0.00    -0.024 C 
HETATM    5  C5  UNL     1      21.641  -0.099  52.121  1.00  0.00     0.086 C 
HETATM    6  C6  UNL     1      22.805  -0.291  52.959  1.00  0.00     0.246 C 
HETATM    7  O1  UNL     1      22.958  -0.328  54.207  1.00  0.00    -0.268 OA
HETATM    8  N1  UNL     1      24.164  -0.505  52.700  1.00  0.00    -0.327 N 
HETATM    9  C7  UNL     1      25.427  -0.691  53.247  1.00  0.00     0.014 C 
HETATM   10  C8  UNL     1      26.413  -1.462  52.872  1.00  0.00     0.027 C 
HETATM   11  C9  UNL     1      27.765  -0.918  53.154  1.00  0.00     0.031 C 
HETATM   12  C10 UNL     1      27.978   0.232  53.721  1.00  0.00     0.061 C 
HETATM   13  N2  UNL     1      29.205   0.895  53.989  1.00  0.00    -0.245 NA
HETATM   14  C11 UNL     1      29.199   2.215  53.778  1.00  0.00     0.223 C 
HETATM   15  N3  UNL     1      27.949   2.846  53.309  1.00  0.00    -0.291 N 
HETATM   16  N4  UNL     1      26.733   2.049  53.091  1.00  0.00    -0.280 N 
HETATM   17  C12 UNL     1      25.963   2.453  51.966  1.00  0.00     0.060 A 
HETATM   18  C13 UNL     1      26.793   2.833  50.887  1.00  0.00     0.032 A 
HETATM   19  C14 UNL     1      26.466   3.283  49.618  1.00  0.00     0.004 A 
HETATM   20  C15 UNL     1      25.093   3.345  49.452  1.00  0.00     0.020 A 
HETATM   21  C16 UNL     1      24.203   2.993  50.451  1.00  0.00     0.020 A 
HETATM   22 BR1  UNL     1      22.457   3.273  49.738  1.00  0.00    -0.050 Br
HETATM   23  C17 UNL     1      24.617   2.554  51.688  1.00  0.00    -0.005 A 
HETATM   24  C18 UNL     1      26.772   1.089  54.119  1.00  0.00     0.166 C 
HETATM   25  C19 UNL     1      25.644   0.168  54.407  1.00  0.00     0.090 C 
HETATM   26  H7  UNL     1      24.224  -0.571  51.693  1.00  0.00     0.169 HD
HETATM   27  H11 UNL     1      27.942   3.889  53.078  1.00  0.00     0.188 HD
ENDROOT
TORSDOF 0
ENDMDL
