ROOT
HETATM    1  C3  UNL     1      26.492  -0.510  52.810  1.00  0.00     0.039 A 
HETATM    2  C4  UNL     1      26.971   0.150  51.725  1.00  0.00     0.033 A 
HETATM    3  C5  UNL     1      26.479   1.392  51.310  1.00  0.00     0.043 A 
HETATM    4  C6  UNL     1      25.452   2.111  51.940  1.00  0.00     0.117 A 
HETATM    5  C7  UNL     1      25.089   1.320  53.008  1.00  0.00     0.160 A 
HETATM    6  F1  UNL     1      24.253   2.095  53.705  1.00  0.00    -0.202 F 
HETATM    7  C8  UNL     1      25.483   0.107  53.498  1.00  0.00     0.033 A 
HETATM    8  C9  UNL     1      24.504  -0.337  54.619  1.00  0.00     0.212 C 
HETATM    9  O1  UNL     1      23.356  -0.606  53.887  1.00  0.00    -0.379 OA
HETATM   10  C10 UNL     1      22.177  -0.840  54.514  1.00  0.00     0.142 C 
HETATM   11  C11 UNL     1      21.424  -2.058  54.143  1.00  0.00     0.042 C 
HETATM   12  C12 UNL     1      21.343   0.420  54.252  1.00  0.00     0.206 C 
HETATM   13  O2  UNL     1      21.101   0.612  52.823  1.00  0.00    -0.352 OA
HETATM   14  C13 UNL     1      20.727   1.945  52.513  1.00  0.00     0.106 A 
HETATM   15  C14 UNL     1      20.359   3.261  52.205  1.00  0.00     0.329 A 
HETATM   16  N2  UNL     1      21.374   4.093  51.795  1.00  0.00     0.102 N 
HETATM   17  N3  UNL     1      21.359   5.415  51.473  1.00  0.00    -0.070 NA
HETATM   18  C15 UNL     1      22.604   5.911  51.157  1.00  0.00     0.265 A 
HETATM   19  N4  UNL     1      23.772   5.244  51.140  1.00  0.00    -0.214 NA
HETATM   20  C16 UNL     1      23.846   3.938  51.446  1.00  0.00     0.208 A 
HETATM   21  C17 UNL     1      22.602   3.612  51.715  1.00  0.00     0.241 A 
HETATM   22  C18 UNL     1      21.861   2.585  52.125  1.00  0.00     0.253 A 
HETATM   23  C19 UNL     1      22.527   1.540  51.206  1.00  0.00     0.064 C 
HETATM   24  O3  UNL     1      25.045   3.306  51.430  1.00  0.00    -0.287 OA
ENDROOT
BRANCH   1  25
HETATM   25  N1  UNL     1      26.832  -1.741  53.380  1.00  0.00    -0.390 N 
HETATM   26  H6  UNL     1      26.390  -2.219  54.186  1.00  0.00     0.159 HD
BRANCH  25  27
HETATM   27  C2  UNL     1      27.924  -2.452  52.798  1.00  0.00     0.115 C 
HETATM   28  C1  UNL     1      29.226  -1.885  53.334  1.00  0.00     0.026 C 
ENDBRANCH  25  27
ENDBRANCH   1  25
TORSDOF 2
ENDMDL
