ROOT
HETATM    1  C1  UNL     1      21.225   1.741  48.231  1.00  0.00     0.036 C 
HETATM    2  C2  UNL     1      20.690   1.022  49.418  1.00  0.00    -0.020 C 
HETATM    3  C3  UNL     1      21.162   1.080  50.644  1.00  0.00    -0.011 C 
HETATM    4  C4  UNL     1      22.342   1.910  51.000  1.00  0.00     0.161 C 
HETATM    5  N1  UNL     1      23.314   1.185  51.774  1.00  0.00    -0.379 N 
HETATM    6  C5  UNL     1      23.209   0.325  52.876  1.00  0.00     0.129 A 
HETATM    7  C6  UNL     1      24.393   0.296  53.574  1.00  0.00     0.160 A 
HETATM    8  N3  UNL     1      24.390  -0.521  54.626  1.00  0.00    -0.222 NA
HETATM    9  C13 UNL     1      23.387  -1.279  55.047  1.00  0.00     0.238 A 
HETATM   10  N4  UNL     1      22.235  -1.238  54.356  1.00  0.00    -0.215 NA
HETATM   11  C14 UNL     1      22.114  -0.447  53.265  1.00  0.00     0.202 A 
HETATM   12  O1  UNL     1      20.867  -0.523  52.671  1.00  0.00    -0.290 OA
HETATM   13  C15 UNL     1      20.408   0.278  51.608  1.00  0.00     0.081 C 
HETATM   14  C16 UNL     1      19.071   0.277  51.500  1.00  0.00     0.007 C 
HETATM   15  C17 UNL     1      17.999   0.850  50.675  1.00  0.00     0.039 C 
HETATM   16  H7  UNL     1      24.307   1.300  51.467  1.00  0.00     0.160 HD
ENDROOT
BRANCH   7  17
HETATM   17  N2  UNL     1      25.549   1.065  53.303  1.00  0.00    -0.339 N 
HETATM   18  H8  UNL     1      25.674   2.050  52.991  1.00  0.00     0.167 HD
BRANCH  17  19
HETATM   19  C7  UNL     1      26.850   0.525  53.452  1.00  0.00     0.035 A 
HETATM   20  C8  UNL     1      27.928   1.296  53.853  1.00  0.00     0.032 A 
HETATM   21  C9  UNL     1      29.236   0.887  54.010  1.00  0.00     0.046 A 
HETATM   22  C10 UNL     1      29.494  -0.446  53.738  1.00  0.00     0.138 A 
HETATM   23  F1  UNL     1      30.768  -0.912  53.874  1.00  0.00    -0.204 F 
HETATM   24  C11 UNL     1      28.473  -1.305  53.327  1.00  0.00     0.074 A 
HETATM   25 CL1  UNL     1      28.903  -2.961  52.999  1.00  0.00    -0.081 Cl
HETATM   26  C12 UNL     1      27.207  -0.786  53.205  1.00  0.00     0.056 A 
ENDBRANCH  17  19
ENDBRANCH   7  17
TORSDOF 2
ENDMDL
