ROOT
HETATM    1  C9  UNL     1      25.585   0.353  52.714  1.00  0.00     0.100 A 
HETATM    2  C10 UNL     1      24.289   0.609  52.606  1.00  0.00     0.053 A 
HETATM    3  C11 UNL     1      23.248   0.119  53.534  1.00  0.00     0.287 A 
HETATM    4  C12 UNL     1      23.837  -0.707  54.620  1.00  0.00     0.012 A 
HETATM    5  C13 UNL     1      23.033  -1.205  55.516  1.00  0.00     0.090 C 
HETATM    6  N2  UNL     1      21.894  -1.582  55.042  1.00  0.00    -0.257 NA
HETATM    7  C14 UNL     1      21.751  -1.757  53.607  1.00  0.00     0.423 C 
HETATM    8  N3  UNL     1      22.159  -0.569  52.868  1.00  0.00     0.129 N 
HETATM    9  C20 UNL     1      25.270  -0.963  54.699  1.00  0.00     0.051 A 
HETATM   10  C21 UNL     1      26.105  -0.465  53.802  1.00  0.00     0.102 A 
ENDROOT
BRANCH   1  11
HETATM   11  O2  UNL     1      26.254   0.973  51.673  1.00  0.00    -0.348 OA
BRANCH  11  12
HETATM   12  C8  UNL     1      26.670   2.300  51.627  1.00  0.00     0.177 C 
BRANCH  12  13
HETATM   13  C7  UNL     1      26.432   2.949  50.279  1.00  0.00     0.046 C 
BRANCH  13  14
HETATM   14  C6  UNL     1      25.557   4.139  50.441  1.00  0.00     0.125 C 
BRANCH  14  15
HETATM   15  N1  UNL     1      24.165   3.918  50.241  1.00  0.00    -0.381 N 
HETATM   16  C2  UNL     1      23.124   4.334  51.157  1.00  0.00     0.021 C 
HETATM   17  C1  UNL     1      23.504   4.644  52.387  1.00  0.00     0.040 C 
HETATM   18  C3  UNL     1      21.781   4.320  50.469  1.00  0.00     0.223 C 
HETATM   19  O1  UNL     1      21.991   4.935  49.239  1.00  0.00    -0.384 OA
HETATM   20  C4  UNL     1      22.746   4.183  48.362  1.00  0.00     0.187 C 
HETATM   21  C5  UNL     1      23.694   3.235  49.054  1.00  0.00     0.149 C 
ENDBRANCH  14  15
ENDBRANCH  13  14
ENDBRANCH  12  13
ENDBRANCH  11  12
ENDBRANCH   1  11
BRANCH  10  22
HETATM   22  O3  UNL     1      27.481  -0.631  53.761  1.00  0.00    -0.353 OA
HETATM   23  C22 UNL     1      28.283   0.071  54.687  1.00  0.00     0.210 C 
ENDBRANCH  10  22
BRANCH   8  24
HETATM   24  C15 UNL     1      21.000   0.276  52.703  1.00  0.00     0.257 C 
BRANCH  24  25
HETATM   25  C16 UNL     1      20.991   0.983  51.403  1.00  0.00     0.038 C 
BRANCH  25  26
HETATM   26  C17 UNL     1      21.364   0.579  50.193  1.00  0.00     0.186 C 
HETATM   27  F1  UNL     1      21.344   0.726  48.850  1.00  0.00    -0.220 F 
ENDBRANCH  25  26
ENDBRANCH  24  25
BRANCH  24  28
HETATM   28  C18 UNL     1      19.747  -0.439  52.996  1.00  0.00     0.093 C 
BRANCH  28  29
HETATM   29  C19 UNL     1      18.519  -0.404  52.441  1.00  0.00     0.204 C 
HETATM   30 CL1  UNL     1      17.177  -0.519  51.290  1.00  0.00    -0.261 Cl
ENDBRANCH  28  29
ENDBRANCH  24  28
ENDBRANCH   8  24
TORSDOF 11
ENDMDL
