ROOT
HETATM    1  C3  UNL     1      23.736   1.174  52.298  1.00  0.00     0.151 C 
HETATM    2  C4  UNL     1      23.352   1.855  51.230  1.00  0.00     0.089 C 
HETATM    3  C5  UNL     1      24.083   2.908  50.485  1.00  0.00     0.076 A 
HETATM    4  N1  UNL     1      23.223   3.523  49.656  1.00  0.00    -0.241 NA
HETATM    5  C6  UNL     1      23.655   4.520  48.874  1.00  0.00     0.236 A 
HETATM    6  N2  UNL     1      24.929   4.925  48.899  1.00  0.00    -0.224 NA
HETATM    7  C7  UNL     1      25.865   4.380  49.688  1.00  0.00     0.139 A 
HETATM    8  C17 UNL     1      25.400   3.370  50.469  1.00  0.00     0.038 A 
HETATM    9  C18 UNL     1      26.568   2.914  51.213  1.00  0.00     0.018 C 
HETATM   10  C19 UNL     1      26.761   2.382  52.422  1.00  0.00     0.028 C 
HETATM   11  C20 UNL     1      25.898   2.005  53.570  1.00  0.00     0.257 C 
HETATM   12  O3  UNL     1      26.677   1.473  54.586  1.00  0.00    -0.362 OA
HETATM   13  C21 UNL     1      27.095   0.185  54.333  1.00  0.00     0.180 C 
HETATM   14  C22 UNL     1      25.958  -0.815  54.438  1.00  0.00     0.129 C 
HETATM   15  C23 UNL     1      24.818  -0.258  53.669  1.00  0.00     0.230 C 
HETATM   16  O4  UNL     1      23.785  -0.960  53.442  1.00  0.00    -0.273 OA
HETATM   17  N5  UNL     1      24.862   1.094  53.163  1.00  0.00    -0.267 N 
ENDROOT
BRANCH   7  18
HETATM   18  N3  UNL     1      27.192   4.880  49.687  1.00  0.00    -0.351 N 
HETATM   19  H8  UNL     1      27.980   4.970  50.347  1.00  0.00     0.163 HD
BRANCH  18  20
HETATM   20  C8  UNL     1      27.653   5.472  48.446  1.00  0.00     0.212 A 
HETATM   21  C9  UNL     1      27.690   6.962  48.449  1.00  0.00     0.113 A 
HETATM   22  C10 UNL     1      29.019   7.550  48.132  1.00  0.00     0.051 A 
HETATM   23  C15 UNL     1      30.164   6.940  47.862  1.00  0.00     0.051 A 
HETATM   24  C16 UNL     1      30.017   5.492  47.899  1.00  0.00     0.115 A 
HETATM   25  N4  UNL     1      28.944   4.858  48.149  1.00  0.00    -0.276 NA
BRANCH  22  26
HETATM   26  O2  UNL     1      29.012   8.959  48.130  1.00  0.00    -0.355 OA
BRANCH  26  27
HETATM   27  C11 UNL     1      29.173   9.733  49.297  1.00  0.00     0.181 C 
BRANCH  27  28
HETATM   28  C12 UNL     1      30.561  10.287  49.283  1.00  0.00     0.030 A 
HETATM   29  C13 UNL     1      31.105  10.996  48.105  1.00  0.00     0.029 A 
HETATM   30  C14 UNL     1      30.661  11.807  49.265  1.00  0.00     0.089 A 
HETATM   31 CL1  UNL     1      29.139  12.730  49.061  1.00  0.00    -0.125 Cl
ENDBRANCH  27  28
ENDBRANCH  26  27
ENDBRANCH  22  26
ENDBRANCH  18  20
ENDBRANCH   7  18
BRANCH   1  32
HETATM   32  O1  UNL     1      22.725   0.290  52.653  1.00  0.00    -0.336 OA
BRANCH  32  33
HETATM   33  C2  UNL     1      21.358   0.562  52.407  1.00  0.00     0.173 C 
HETATM   34  C1  UNL     1      20.484   0.465  53.612  1.00  0.00     0.034 C 
ENDBRANCH  32  33
ENDBRANCH   1  32
TORSDOF 7
ENDMDL
