ROOT
HETATM    1  C6  UNL     1      25.204   0.047  53.489  1.00  0.00     0.314 C 
HETATM    2  C7  UNL     1      25.640   0.344  54.939  1.00  0.00     0.153 C 
HETATM    3  N3  UNL     1      26.786   0.932  54.846  1.00  0.00    -0.187 NA
HETATM    4  N4  UNL     1      27.694   0.683  53.820  1.00  0.00    -0.276 N 
HETATM    5  C8  UNL     1      27.602  -0.199  52.728  1.00  0.00     0.140 C 
HETATM    6  C9  UNL     1      26.435  -0.678  53.033  1.00  0.00     0.065 C 
HETATM    7  N5  UNL     1      26.685  -2.073  52.899  1.00  0.00    -0.366 N 
HETATM    8  C10 UNL     1      27.962  -2.720  52.913  1.00  0.00     0.088 C 
HETATM    9  C11 UNL     1      29.209  -2.274  53.152  1.00  0.00     0.017 C 
HETATM   10  C12 UNL     1      30.027  -1.120  53.493  1.00  0.00    -0.001 C 
HETATM   11  C13 UNL     1      29.966   0.187  53.777  1.00  0.00    -0.005 C 
HETATM   12  C14 UNL     1      29.002   1.352  53.945  1.00  0.00     0.177 C 
HETATM   13  H15 UNL     1      25.790  -2.580  52.791  1.00  0.00     0.165 HD
ENDROOT
BRANCH   1  14
HETATM   14  N2  UNL     1      24.048  -0.767  53.456  1.00  0.00     0.103 N 
HETATM   15  H11 UNL     1      24.235  -1.713  53.834  1.00  0.00     0.317 HD
BRANCH  14  16
HETATM   16  C5  UNL     1      22.981  -0.177  54.220  1.00  0.00     0.225 C 
HETATM   17  C4  UNL     1      22.042   0.626  53.317  1.00  0.00     0.066 C 
HETATM   18  C3  UNL     1      20.714   0.727  54.026  1.00  0.00     0.274 C 
HETATM   19  N1  UNL     1      19.984  -0.527  53.995  1.00  0.00     0.088 N 
HETATM   20  C16 UNL     1      20.946  -1.615  53.962  1.00  0.00     0.274 C 
HETATM   21  C15 UNL     1      22.106  -1.221  54.880  1.00  0.00     0.066 C 
BRANCH  19  22
HETATM   22  C2  UNL     1      19.177  -0.635  52.785  1.00  0.00     0.268 C 
HETATM   23  C1  UNL     1      17.890  -1.338  53.136  1.00  0.00     0.037 C 
ENDBRANCH  19  22
ENDBRANCH  14  16
ENDBRANCH   1  14
TORSDOF 3
ENDMDL
