ROOT
HETATM    1  C1  UNL     1      25.305  -0.688  55.509  1.00  0.00     0.071 C 
HETATM    2  C2  UNL     1      26.257  -0.064  54.551  1.00  0.00     0.043 C 
HETATM    3  N1  UNL     1      27.524  -0.177  54.872  1.00  0.00    -0.244 NA
HETATM    4  C3  UNL     1      28.755   0.228  54.314  1.00  0.00     0.263 C 
HETATM    5  N2  UNL     1      29.106   1.180  53.496  1.00  0.00    -0.119 NA
HETATM    6  O1  UNL     1      28.371   2.175  52.856  1.00  0.00    -0.187 OA
HETATM    7  C4  UNL     1      27.159   2.191  52.140  1.00  0.00     0.213 C 
HETATM    8  C11 UNL     1      26.050   1.519  52.404  1.00  0.00     0.081 C 
HETATM    9  C12 UNL     1      25.596   0.568  53.416  1.00  0.00     0.008 C 
HETATM   10  C13 UNL     1      24.354   0.226  53.257  1.00  0.00     0.102 C 
ENDROOT
BRANCH   7  11
HETATM   11  O2  UNL     1      27.003   2.975  51.001  1.00  0.00    -0.304 OA
BRANCH  11  12
HETATM   12  P1  UNL     1      25.409   3.174  50.292  1.00  0.00     0.024 P 
HETATM   13  H5  UNL     1      25.419   3.019  48.846  1.00  0.00     0.088 HD
BRANCH  12  14
HETATM   14  C5  UNL     1      24.696   4.849  50.767  1.00  0.00     0.091 C 
BRANCH  14  15
HETATM   15  C6  UNL     1      23.705   4.571  51.845  1.00  0.00     0.279 C 
BRANCH  15  16
HETATM   16  N3  UNL     1      22.480   5.292  51.779  1.00  0.00     0.092 N 
HETATM   17  C7  UNL     1      21.389   4.409  51.489  1.00  0.00     0.298 C 
HETATM   18  C8  UNL     1      20.871   4.689  50.113  1.00  0.00     0.198 C 
HETATM   19  O3  UNL     1      20.349   5.977  50.133  1.00  0.00    -0.388 OA
HETATM   20  C9  UNL     1      21.257   6.956  50.441  1.00  0.00     0.198 C 
HETATM   21  C10 UNL     1      22.575   6.460  50.973  1.00  0.00     0.298 C 
ENDBRANCH  15  16
ENDBRANCH  14  15
ENDBRANCH  12  14
ENDBRANCH  11  12
ENDBRANCH   7  11
BRANCH  10  22
HETATM   22  N4  UNL     1      23.256  -0.511  53.678  1.00  0.00    -0.365 N 
HETATM   23  H20 UNL     1      23.394  -1.240  54.443  1.00  0.00     0.165 HD
BRANCH  22  24
HETATM   24  C14 UNL     1      21.941  -0.359  53.153  1.00  0.00     0.033 A 
HETATM   25  C15 UNL     1      20.836  -0.746  53.882  1.00  0.00     0.032 A 
HETATM   26  C16 UNL     1      19.560  -0.592  53.349  1.00  0.00     0.046 A 
HETATM   27  C17 UNL     1      19.385  -0.046  52.075  1.00  0.00     0.138 A 
HETATM   28  F1  UNL     1      18.166   0.134  51.490  1.00  0.00    -0.204 F 
HETATM   29  C18 UNL     1      20.478   0.348  51.325  1.00  0.00     0.074 A 
HETATM   30 CL1  UNL     1      20.367   1.043  49.719  1.00  0.00    -0.081 Cl
HETATM   31  C19 UNL     1      21.720   0.174  51.900  1.00  0.00     0.056 A 
ENDBRANCH  22  24
ENDBRANCH  10  22
TORSDOF 7
ENDMDL
