ROOT
HETATM    1  C4  UNL     1      25.187   5.472  49.386  1.00  0.00     0.030 A 
HETATM    2  C5  UNL     1      26.397   4.911  49.054  1.00  0.00     0.031 A 
HETATM    3  C6  UNL     1      26.922   3.747  49.567  1.00  0.00     0.035 A 
HETATM    4  C7  UNL     1      26.182   3.059  50.507  1.00  0.00     0.067 A 
HETATM    5  C13 UNL     1      24.958   3.574  50.881  1.00  0.00     0.097 A 
HETATM    6  C15 UNL     1      24.495   4.743  50.328  1.00  0.00     0.068 A 
ENDROOT
BRANCH   4   7
HETATM    7  N3  UNL     1      26.610   1.854  51.109  1.00  0.00    -0.338 N 
HETATM    8  H12 UNL     1      26.318   1.097  50.442  1.00  0.00     0.167 HD
BRANCH   7   9
HETATM    9  C8  UNL     1      27.287   1.598  52.330  1.00  0.00     0.146 A 
HETATM   10  N4  UNL     1      28.214   2.520  52.715  1.00  0.00    -0.224 NA
HETATM   11  C9  UNL     1      28.911   2.375  53.853  1.00  0.00     0.234 A 
HETATM   12  N5  UNL     1      28.729   1.320  54.661  1.00  0.00    -0.253 NA
HETATM   13  C10 UNL     1      27.837   0.389  54.336  1.00  0.00     0.138 A 
HETATM   14  C11 UNL     1      27.104   0.518  53.163  1.00  0.00     0.111 A 
BRANCH  14  15
HETATM   15  C12 UNL     1      26.107  -0.477  52.752  1.00  0.00     0.422 C 
HETATM   16  F1  UNL     1      25.932  -1.373  53.814  1.00  0.00    -0.166 F 
HETATM   17  F2  UNL     1      26.578  -1.192  51.677  1.00  0.00    -0.166 F 
HETATM   18  F3  UNL     1      24.862   0.075  52.531  1.00  0.00    -0.166 F 
ENDBRANCH  14  15
ENDBRANCH   7   9
ENDBRANCH   4   7
BRANCH   5  19
HETATM   19  O1  UNL     1      24.200   2.897  51.826  1.00  0.00    -0.354 OA
HETATM   20  C14 UNL     1      24.116   3.396  53.147  1.00  0.00     0.210 C 
ENDBRANCH   5  19
BRANCH   1  21
HETATM   21  N2  UNL     1      24.663   6.666  48.835  1.00  0.00    -0.388 N 
HETATM   22  H9  UNL     1      23.661   6.582  48.480  1.00  0.00     0.159 HD
BRANCH  21  23
HETATM   23  C3  UNL     1      25.337   7.937  48.713  1.00  0.00     0.150 C 
BRANCH  23  24
HETATM   24  C2  UNL     1      25.464   8.684  50.001  1.00  0.00     0.288 C 
BRANCH  24  25
HETATM   25  N1  UNL     1      26.802   8.412  50.543  1.00  0.00     0.080 N 
HETATM   26  C1  UNL     1      27.760   8.757  49.497  1.00  0.00     0.306 C 
HETATM   27  H4  UNL     1      26.903   7.423  50.844  1.00  0.00     0.315 HD
ENDBRANCH  24  25
ENDBRANCH  23  24
ENDBRANCH  21  23
ENDBRANCH   1  21
TORSDOF 8
ENDMDL
