ROOT
HETATM    1  C3  UNL     1      27.144   0.727  53.779  1.00  0.00     0.184 C 
HETATM    2  O2  UNL     1      26.391   1.885  54.176  1.00  0.00    -0.338 OA
HETATM    3  C4  UNL     1      25.209   2.099  53.480  1.00  0.00     0.103 C 
HETATM    4  C5  UNL     1      24.677   3.326  53.423  1.00  0.00     0.051 C 
HETATM    5  C6  UNL     1      23.466   3.395  52.617  1.00  0.00     0.003 A 
HETATM    6  C7  UNL     1      22.864   4.394  51.994  1.00  0.00     0.134 A 
HETATM    7  N2  UNL     1      21.757   3.928  51.233  1.00  0.00    -0.246 NA
HETATM    8  C14 UNL     1      21.631   2.631  51.373  1.00  0.00     0.105 A 
HETATM    9  C15 UNL     1      22.669   2.229  52.271  1.00  0.00     0.088 A 
HETATM   10  C16 UNL     1      23.374   0.955  52.182  1.00  0.00     0.028 C 
HETATM   11  C17 UNL     1      24.576   0.972  52.806  1.00  0.00     0.100 C 
HETATM   12  O3  UNL     1      25.228  -0.278  52.842  1.00  0.00    -0.339 OA
HETATM   13  C18 UNL     1      26.211  -0.445  53.849  1.00  0.00     0.184 C 
ENDROOT
BRANCH   6  14
HETATM   14  N1  UNL     1      23.314   5.758  51.990  1.00  0.00    -0.341 N 
HETATM   15  H8  UNL     1      22.970   6.347  52.804  1.00  0.00     0.167 HD
BRANCH  14  16
HETATM   16  C8  UNL     1      24.151   6.404  51.042  1.00  0.00     0.035 A 
HETATM   17  C9  UNL     1      24.036   7.758  50.751  1.00  0.00     0.029 A 
HETATM   18  C10 UNL     1      24.889   8.280  49.825  1.00  0.00     0.004 A 
HETATM   19  C11 UNL     1      25.866   7.569  49.146  1.00  0.00     0.024 A 
HETATM   20  C12 UNL     1      25.975   6.224  49.440  1.00  0.00     0.036 A 
HETATM   21 CL1  UNL     1      27.204   5.337  48.585  1.00  0.00    -0.084 Cl
HETATM   22  C13 UNL     1      25.109   5.670  50.388  1.00  0.00     0.053 A 
ENDBRANCH  14  16
ENDBRANCH   6  14
BRANCH   1  23
HETATM   23  C2  UNL     1      28.362   0.559  54.654  1.00  0.00     0.202 C 
BRANCH  23  24
HETATM   24  O1  UNL     1      28.833  -0.754  54.417  1.00  0.00    -0.393 OA
HETATM   25  C1  UNL     1      29.935  -0.595  53.558  1.00  0.00     0.201 C 
ENDBRANCH  23  24
ENDBRANCH   1  23
BRANCH  13  26
HETATM   26  C19 UNL     1      25.516  -0.474  55.216  1.00  0.00     0.202 C 
BRANCH  26  27
HETATM   27  O4  UNL     1      24.744  -1.590  55.409  1.00  0.00    -0.393 OA
HETATM   28  C20 UNL     1      23.395  -1.361  55.570  1.00  0.00     0.201 C 
ENDBRANCH  26  27
ENDBRANCH  13  26
TORSDOF 6
ENDMDL
