ROOT
HETATM    1  C4  UNL     1      23.860   1.882  51.921  1.00  0.00     0.075 C 
HETATM    2  C5  UNL     1      23.700   1.116  53.039  1.00  0.00     0.162 C 
HETATM    3  C6  UNL     1      22.565   0.259  53.507  1.00  0.00     0.057 A 
HETATM    4  N1  UNL     1      23.336  -0.404  54.387  1.00  0.00    -0.245 NA
HETATM    5  C7  UNL     1      22.905  -1.430  55.183  1.00  0.00     0.235 A 
HETATM    6  N2  UNL     1      21.623  -1.823  55.097  1.00  0.00    -0.224 NA
HETATM    7  C8  UNL     1      20.850  -1.165  54.220  1.00  0.00     0.140 A 
HETATM    8  C9  UNL     1      21.209  -0.135  53.401  1.00  0.00     0.046 A 
HETATM    9  C10 UNL     1      20.280   0.596  52.466  1.00  0.00     0.196 C 
HETATM   10  O2  UNL     1      20.803   1.088  51.356  1.00  0.00    -0.374 OA
HETATM   11  C11 UNL     1      21.498   0.430  50.419  1.00  0.00     0.195 C 
HETATM   12  C12 UNL     1      21.952   1.547  49.429  1.00  0.00     0.193 C 
HETATM   13  O3  UNL     1      22.654   2.503  49.980  1.00  0.00    -0.386 OA
HETATM   14  C13 UNL     1      23.762   2.637  50.616  1.00  0.00     0.200 C 
HETATM   15  C14 UNL     1      18.985  -0.080  52.375  1.00  0.00     0.005 A 
HETATM   16  C15 UNL     1      18.127   0.459  51.408  1.00  0.00     0.056 A 
HETATM   17  C16 UNL     1      16.852  -0.101  51.300  1.00  0.00     0.138 A 
HETATM   18  F1  UNL     1      15.937   0.340  50.399  1.00  0.00    -0.204 F 
HETATM   19  C17 UNL     1      16.429  -1.141  52.098  1.00  0.00     0.074 A 
HETATM   20 CL1  UNL     1      14.824  -1.832  51.952  1.00  0.00    -0.081 Cl
HETATM   21  C18 UNL     1      17.273  -1.686  53.063  1.00  0.00     0.057 A 
HETATM   22  C19 UNL     1      18.524  -1.117  53.148  1.00  0.00     0.044 A 
HETATM   23  N3  UNL     1      19.516  -1.597  54.043  1.00  0.00    -0.340 N 
HETATM   24  H19 UNL     1      19.185  -2.401  54.660  1.00  0.00     0.167 HD
ENDROOT
BRANCH   1  25
HETATM   25  O1  UNL     1      25.139   2.189  52.458  1.00  0.00    -0.378 OA
BRANCH  25  26
HETATM   26  C2  UNL     1      26.080   1.247  52.878  1.00  0.00     0.114 C 
HETATM   27  C1  UNL     1      27.197   1.986  53.595  1.00  0.00     0.039 C 
HETATM   28  C3  UNL     1      26.674   0.409  51.768  1.00  0.00     0.039 C 
ENDBRANCH  25  26
ENDBRANCH   1  25
TORSDOF 2
ENDMDL
