ROOT
HETATM    1  C2  UNL     1      27.279   1.320  53.460  1.00  0.00     0.045 C 
HETATM    2  C3  UNL     1      26.871   2.013  52.412  1.00  0.00     0.019 C 
HETATM    3  C4  UNL     1      25.527   2.012  51.845  1.00  0.00     0.298 C 
HETATM    4  N1  UNL     1      24.956   3.356  51.797  1.00  0.00     0.092 N 
HETATM    5  C5  UNL     1      23.524   3.279  51.705  1.00  0.00     0.326 C 
HETATM    6  C6  UNL     1      22.963   2.671  50.504  1.00  0.00     0.035 A 
HETATM    7  C7  UNL     1      23.231   3.200  49.330  1.00  0.00     0.026 A 
HETATM    8  C8  UNL     1      22.709   2.656  48.085  1.00  0.00    -0.000 A 
HETATM    9  C9  UNL     1      21.946   1.592  48.256  1.00  0.00    -0.007 A 
HETATM   10  C10 UNL     1      21.533   0.865  49.473  1.00  0.00     0.150 A 
HETATM   11  N2  UNL     1      22.132   1.484  50.666  1.00  0.00    -0.379 N 
HETATM   12  C11 UNL     1      21.839   0.844  51.902  1.00  0.00     0.127 C 
HETATM   13  C12 UNL     1      20.555   1.296  52.572  1.00  0.00     0.048 C 
HETATM   14  C13 UNL     1      20.519   0.602  53.889  1.00  0.00    -0.006 C 
HETATM   15  C14 UNL     1      21.302  -0.193  54.601  1.00  0.00     0.112 C 
HETATM   16  N3  UNL     1      22.566  -0.814  54.522  1.00  0.00    -0.277 NA
HETATM   17  C15 UNL     1      23.464  -0.738  55.464  1.00  0.00     0.093 C 
HETATM   18  C16 UNL     1      24.723  -1.478  55.150  1.00  0.00     0.073 C 
HETATM   19  C17 UNL     1      25.724  -0.518  54.648  1.00  0.00    -0.021 C 
HETATM   20  C18 UNL     1      26.669   0.300  54.281  1.00  0.00     0.012 C 
HETATM   21  H4  UNL     1      25.375   3.864  50.985  1.00  0.00     0.316 HD
ENDROOT
BRANCH   1  22
HETATM   22  C1  UNL     1      28.691   1.391  53.985  1.00  0.00     0.417 C 
HETATM   23  F1  UNL     1      29.465   0.808  53.030  1.00  0.00    -0.166 F 
HETATM   24  F2  UNL     1      29.002   2.736  54.039  1.00  0.00    -0.166 F 
HETATM   25  F3  UNL     1      28.814   0.771  55.202  1.00  0.00    -0.166 F 
ENDBRANCH   1  22
TORSDOF 1
ENDMDL
