ROOT
HETATM    1  C9  UNL     1      22.491   0.494  53.055  1.00  0.00     0.031 A 
HETATM    2  C10 UNL     1      21.647  -0.012  54.022  1.00  0.00     0.029 A 
HETATM    3  C11 UNL     1      22.037  -0.847  55.048  1.00  0.00     0.005 A 
HETATM    4  C12 UNL     1      23.366  -1.211  55.125  1.00  0.00     0.037 A 
HETATM    5  C13 UNL     1      24.269  -0.746  54.193  1.00  0.00     0.070 A 
HETATM    6  C19 UNL     1      23.803   0.091  53.189  1.00  0.00     0.065 A 
ENDROOT
BRANCH   1   7
HETATM    7  N4  UNL     1      22.060   1.352  52.009  1.00  0.00    -0.372 N 
HETATM    8  H13 UNL     1      21.533   0.915  51.223  1.00  0.00     0.161 HD
BRANCH   7   9
HETATM    9  C8  UNL     1      22.338   2.752  52.036  1.00  0.00     0.271 C 
BRANCH   9  10
HETATM   10  N3  UNL     1      23.503   3.119  51.291  1.00  0.00    -0.270 NA
HETATM   11  C4  UNL     1      23.848   4.309  51.020  1.00  0.00     0.055 C 
BRANCH  11  12
HETATM   12  C3  UNL     1      25.057   4.584  50.254  1.00  0.00     0.050 C 
HETATM   13  C2  UNL     1      25.939   3.620  50.048  1.00  0.00     0.117 C 
BRANCH  13  14
HETATM   14  N1  UNL     1      27.135   3.814  49.312  1.00  0.00    -0.284 NA
HETATM   15  C1  UNL     1      27.414   4.882  48.676  1.00  0.00     0.148 C 
ENDBRANCH  13  14
ENDBRANCH  11  12
BRANCH  11  16
HETATM   16  C5  UNL     1      23.065   5.456  51.457  1.00  0.00     0.048 C 
HETATM   17  C6  UNL     1      22.797   6.466  50.648  1.00  0.00     0.084 C 
BRANCH  17  18
HETATM   18  N2  UNL     1      22.064   7.636  50.902  1.00  0.00    -0.403 N 
HETATM   19  C7  UNL     1      21.273   8.394  49.929  1.00  0.00     0.145 C 
HETATM   20  H7  UNL     1      21.995   8.113  51.829  1.00  0.00     0.158 HD
ENDBRANCH  17  18
ENDBRANCH  11  16
ENDBRANCH   9  10
ENDBRANCH   7   9
ENDBRANCH   1   7
BRANCH   5  21
HETATM   21  O1  UNL     1      25.627  -1.080  54.216  1.00  0.00    -0.349 OA
BRANCH  21  22
HETATM   22  C14 UNL     1      26.287  -1.038  52.957  1.00  0.00     0.196 C 
BRANCH  22  23
HETATM   23  C15 UNL     1      27.793  -0.999  53.126  1.00  0.00     0.156 C 
BRANCH  23  24
HETATM   24  N5  UNL     1      28.256   0.298  53.559  1.00  0.00    -0.348 N 
HETATM   25  C16 UNL     1      28.062   1.499  52.998  1.00  0.00     0.111 A 
HETATM   26  C17 UNL     1      28.653   2.524  53.689  1.00  0.00     0.135 A 
HETATM   27  N6  UNL     1      29.233   1.892  54.724  1.00  0.00    -0.255 NA
HETATM   28  C18 UNL     1      28.996   0.561  54.648  1.00  0.00     0.209 A 
ENDBRANCH  23  24
ENDBRANCH  22  23
ENDBRANCH  21  22
ENDBRANCH   5  21
TORSDOF 11
ENDMDL
