ROOT
HETATM    1  C1  UNL     1      20.339  -0.474  53.326  1.00  0.00     0.039 C 
HETATM    2  C2  UNL     1      21.019   0.277  52.488  1.00  0.00    -0.071 C 
HETATM    3  C3  UNL     1      20.808   1.181  51.301  1.00  0.00     0.036 C 
HETATM    4  C4  UNL     1      21.348   0.549  50.064  1.00  0.00     0.024 C 
HETATM    5  C5  UNL     1      21.664   1.441  48.892  1.00  0.00     0.125 C 
HETATM    6  N1  UNL     1      22.750   2.324  49.238  1.00  0.00    -0.341 N 
HETATM    7  C6  UNL     1      23.812   3.204  49.592  1.00  0.00     0.341 C 
HETATM    8  O1  UNL     1      22.998   3.788  50.393  1.00  0.00    -0.245 OA
HETATM    9  N2  UNL     1      25.156   3.573  49.411  1.00  0.00    -0.207 NA
HETATM   10  C7  UNL     1      26.164   3.214  50.074  1.00  0.00     0.126 C 
HETATM   11  C8  UNL     1      26.351   2.338  51.212  1.00  0.00    -0.048 A 
HETATM   12  C9  UNL     1      27.101   1.724  52.149  1.00  0.00     0.050 A 
HETATM   13  C10 UNL     1      27.410   0.871  53.285  1.00  0.00     0.021 A 
HETATM   14  C11 UNL     1      26.644   0.102  54.066  1.00  0.00     0.110 A 
HETATM   15  C12 UNL     1      25.446  -0.614  54.681  1.00  0.00     0.235 A 
HETATM   16  O3  UNL     1      24.311  -0.337  54.073  1.00  0.00    -0.380 OA
HETATM   17  C13 UNL     1      23.067  -0.781  54.319  1.00  0.00     0.206 A 
HETATM   18  C14 UNL     1      22.118  -0.159  53.305  1.00  0.00    -0.036 A 
HETATM   19  C15 UNL     1      23.105   0.498  52.729  1.00  0.00     0.003 A 
HETATM   20  C16 UNL     1      24.119   1.252  52.039  1.00  0.00    -0.006 A 
HETATM   21  C17 UNL     1      25.431   1.569  51.947  1.00  0.00     0.056 A 
HETATM   22  H9  UNL     1      23.508   1.942  48.587  1.00  0.00     0.164 HD
ENDROOT
BRANCH  14  23
HETATM   23  O2  UNL     1      27.650  -0.409  54.938  1.00  0.00    -0.158 OA
HETATM   24  F1  UNL     1      28.867   0.159  54.963  1.00  0.00    -0.042 F 
ENDBRANCH  14  23
TORSDOF 1
ENDMDL
