ROOT
HETATM    1  C9  UNL     1      27.339   2.104  53.133  1.00  0.00     0.046 A 
HETATM    2  C10 UNL     1      28.583   2.408  53.607  1.00  0.00     0.049 A 
HETATM    3  C11 UNL     1      29.391   1.784  54.529  1.00  0.00     0.122 A 
HETATM    4  N2  UNL     1      28.764   0.671  55.011  1.00  0.00    -0.236 NA
HETATM    5  C12 UNL     1      27.573   0.280  54.634  1.00  0.00     0.185 A 
HETATM    6  C13 UNL     1      26.780   0.931  53.697  1.00  0.00     0.077 A 
HETATM    7  C14 UNL     1      25.740  -0.053  53.852  1.00  0.00     0.094 A 
HETATM    8  O1  UNL     1      26.533  -0.679  54.770  1.00  0.00    -0.290 OA
ENDROOT
BRANCH   1   9
HETATM    9  N1  UNL     1      26.537   2.747  52.192  1.00  0.00    -0.389 N 
HETATM   10  H12 UNL     1      25.917   3.533  52.511  1.00  0.00     0.159 HD
BRANCH   9  11
HETATM   11  C8  UNL     1      26.291   2.625  50.775  1.00  0.00     0.123 C 
BRANCH  11  12
HETATM   12  C7  UNL     1      24.840   2.924  50.435  1.00  0.00     0.047 C 
BRANCH  12  13
HETATM   13  C6  UNL     1      24.075   3.140  51.661  1.00  0.00    -0.025 C 
HETATM   14  C5  UNL     1      22.927   2.840  52.238  1.00  0.00    -0.004 C 
BRANCH  14  15
HETATM   15  C4  UNL     1      21.761   2.062  51.864  1.00  0.00    -0.004 C 
HETATM   16  C3  UNL     1      21.658   1.132  50.898  1.00  0.00    -0.021 C 
BRANCH  16  17
HETATM   17  C2  UNL     1      20.330   0.612  50.865  1.00  0.00     0.034 C 
HETATM   18  C1  UNL     1      19.289   0.213  51.489  1.00  0.00    -0.008 C 
ENDBRANCH  16  17
ENDBRANCH  14  15
ENDBRANCH  12  13
ENDBRANCH  11  12
ENDBRANCH   9  11
ENDBRANCH   1   9
BRANCH   7  19
HETATM   19  C15 UNL     1      24.559  -0.287  53.361  1.00  0.00     0.038 C 
BRANCH  19  20
HETATM   20  C16 UNL     1      23.255  -0.490  53.966  1.00  0.00    -0.002 C 
HETATM   21  C17 UNL     1      22.276  -1.313  53.496  1.00  0.00    -0.031 C 
HETATM   22  C18 UNL     1      21.182  -1.148  54.468  1.00  0.00     0.036 C 
ENDBRANCH  19  20
ENDBRANCH   7  19
TORSDOF 8
ENDMDL
