ROOT
HETATM    1  C4  UNL     1      24.223   0.113  53.522  1.00  0.00     0.090 A 
HETATM    2  C5  UNL     1      25.343  -0.278  54.228  1.00  0.00     0.038 A 
HETATM    3  C6  UNL     1      26.528   0.307  53.862  1.00  0.00     0.057 A 
HETATM    4  C7  UNL     1      26.657   1.251  52.842  1.00  0.00     0.175 A 
HETATM    5  N2  UNL     1      27.631   1.965  52.281  1.00  0.00    -0.128 NA
HETATM    6  N3  UNL     1      27.131   2.717  51.323  1.00  0.00    -0.121 NA
HETATM    7  C8  UNL     1      25.809   2.479  51.269  1.00  0.00     0.211 A 
HETATM    8  N5  UNL     1      25.496   1.572  52.205  1.00  0.00    -0.187 N 
HETATM    9  N6  UNL     1      24.333   1.029  52.528  1.00  0.00    -0.163 NA
ENDROOT
BRANCH   7  10
HETATM   10  S1  UNL     1      24.711   3.280  50.113  1.00  0.00    -0.089 SA
HETATM   11  C9  UNL     1      23.323   3.055  49.321  1.00  0.00     0.049 A 
HETATM   12  C10 UNL     1      23.404   4.357  48.673  1.00  0.00     0.025 A 
HETATM   13  C11 UNL     1      24.539   4.801  49.181  1.00  0.00     0.003 A 
BRANCH  13  14
HETATM   14  C12 UNL     1      25.363   5.995  49.080  1.00  0.00     0.027 C 
HETATM   15  C13 UNL     1      26.645   6.175  48.814  1.00  0.00    -0.037 A 
HETATM   16  C14 UNL     1      27.599   5.135  48.539  1.00  0.00     0.010 A 
HETATM   17  C17 UNL     1      27.202   7.532  48.782  1.00  0.00     0.186 A 
HETATM   18  C15 UNL     1      28.874   5.287  48.272  1.00  0.00     0.019 A 
HETATM   19  C16 UNL     1      29.393   6.631  48.248  1.00  0.00     0.110 A 
HETATM   20  N4  UNL     1      28.588   7.589  48.486  1.00  0.00    -0.297 NA
ENDBRANCH  13  14
ENDBRANCH   7  10
BRANCH   1  21
HETATM   21  C3  UNL     1      22.930  -0.472  53.863  1.00  0.00     0.031 A 
HETATM   22  C2  UNL     1      21.695  -0.337  53.255  1.00  0.00     0.127 A 
HETATM   23  N1  UNL     1      20.764  -1.062  53.906  1.00  0.00    -0.285 N 
HETATM   24  C1  UNL     1      19.365  -1.120  53.502  1.00  0.00     0.179 C 
HETATM   25  N7  UNL     1      21.373  -1.663  54.925  1.00  0.00    -0.185 NA
HETATM   26  C18 UNL     1      22.685  -1.325  54.924  1.00  0.00     0.154 A 
ENDBRANCH   1  21
TORSDOF 3
ENDMDL
