ROOT
HETATM    1  C1  UNL     1      26.379   0.098  51.811  1.00  0.00     0.044 C 
HETATM    2  C2  UNL     1      26.689   0.872  52.849  1.00  0.00    -0.020 C 
HETATM    3  C3  UNL     1      27.887   1.756  52.908  1.00  0.00     0.076 C 
HETATM    4  N1  UNL     1      27.706   2.497  51.886  1.00  0.00    -0.244 NA
HETATM    5  C4  UNL     1      26.567   2.341  51.037  1.00  0.00     0.229 C 
HETATM    6  N2  UNL     1      25.670   2.803  51.806  1.00  0.00    -0.263 NA
HETATM    7  C5  UNL     1      24.270   2.933  51.554  1.00  0.00     0.272 C 
HETATM    8  N3  UNL     1      23.471   2.613  52.739  1.00  0.00    -0.371 N 
HETATM    9  C6  UNL     1      23.618   1.286  53.297  1.00  0.00     0.038 A 
HETATM   10  C7  UNL     1      24.554   0.517  53.883  1.00  0.00     0.017 A 
HETATM   11  C8  UNL     1      24.031  -0.850  54.249  1.00  0.00     0.233 A 
HETATM   12  F1  UNL     1      24.049  -0.863  55.648  1.00  0.00    -0.240 F 
HETATM   13  C9  UNL     1      22.644  -0.765  53.788  1.00  0.00    -0.044 A 
HETATM   14  C10 UNL     1      21.871  -1.986  54.021  1.00  0.00     0.047 C 
HETATM   15  C11 UNL     1      22.426   0.429  53.260  1.00  0.00     0.035 A 
HETATM   16  C12 UNL     1      25.917   1.002  54.121  1.00  0.00     0.187 C 
HETATM   17  O1  UNL     1      26.619   0.286  55.054  1.00  0.00    -0.374 OA
HETATM   18  C13 UNL     1      27.919   0.102  54.689  1.00  0.00     0.210 C 
HETATM   19  C14 UNL     1      28.609   1.283  54.108  1.00  0.00     0.293 C 
HETATM   20  H6  UNL     1      22.782   3.250  53.245  1.00  0.00     0.161 HD
ENDROOT
BRANCH  19  21
HETATM   21  N4  UNL     1      29.935   0.843  53.693  1.00  0.00     0.090 N 
HETATM   22  H16 UNL     1      29.939  -0.200  53.724  1.00  0.00     0.313 HD
HETATM   23  H17 UNL     1      30.108   1.239  52.742  1.00  0.00     0.313 HD
ENDBRANCH  19  21
TORSDOF 1
ENDMDL
