ROOT
HETATM    1  C3  UNL     1      27.268   0.889  53.542  1.00  0.00     0.144 A 
HETATM    2  C5  UNL     1      26.203   1.350  53.097  1.00  0.00    -0.001 A 
HETATM    3  C6  UNL     1      25.559   0.409  53.733  1.00  0.00     0.060 A 
HETATM    4  C7  UNL     1      25.019  -0.343  54.240  1.00  0.00     0.022 C 
HETATM    5  O3  UNL     1      24.267  -1.344  54.908  1.00  0.00    -0.246 OA
HETATM    6  C8  UNL     1      22.798  -0.906  54.428  1.00  0.00     0.210 A 
HETATM    7  N1  UNL     1      21.728  -1.606  54.708  1.00  0.00    -0.215 NA
HETATM    8  C9  UNL     1      20.516  -1.215  54.286  1.00  0.00     0.238 A 
HETATM    9  N2  UNL     1      20.434  -0.104  53.579  1.00  0.00    -0.222 NA
HETATM   10  C10 UNL     1      21.368   0.723  53.201  1.00  0.00     0.160 A 
HETATM   11  C17 UNL     1      22.615   0.326  53.635  1.00  0.00     0.129 A 
HETATM   12  N4  UNL     1      23.642   1.334  53.193  1.00  0.00    -0.379 N 
HETATM   13  C18 UNL     1      24.880   1.784  52.645  1.00  0.00     0.159 C 
HETATM   14  H15 UNL     1      23.042   2.193  53.462  1.00  0.00     0.160 HD
ENDROOT
BRANCH  10  15
HETATM   15  N3  UNL     1      21.287   1.882  52.424  1.00  0.00    -0.339 N 
HETATM   16  H10 UNL     1      21.108   2.850  52.737  1.00  0.00     0.167 HD
BRANCH  15  17
HETATM   17  C11 UNL     1      21.491   1.906  51.026  1.00  0.00     0.035 A 
HETATM   18  C12 UNL     1      21.245   0.830  50.211  1.00  0.00     0.029 A 
HETATM   19  C13 UNL     1      21.451   0.820  48.854  1.00  0.00     0.004 A 
HETATM   20  C14 UNL     1      21.937   1.933  48.202  1.00  0.00     0.019 A 
HETATM   21  C15 UNL     1      22.200   3.043  48.972  1.00  0.00     0.013 A 
HETATM   22 BR1  UNL     1      22.877   4.627  48.151  1.00  0.00    -0.051 Br
HETATM   23  C16 UNL     1      21.971   2.985  50.325  1.00  0.00     0.048 A 
ENDBRANCH  15  17
ENDBRANCH  10  15
BRANCH   1  24
HETATM   24  C2  UNL     1      27.945  -0.110  54.354  1.00  0.00     0.215 C 
BRANCH  24  25
HETATM   25  O1  UNL     1      28.423  -1.169  53.564  1.00  0.00    -0.392 OA
HETATM   26  C1  UNL     1      29.810  -1.149  53.681  1.00  0.00     0.201 C 
ENDBRANCH  24  25
ENDBRANCH   1  24
BRANCH   1  27
HETATM   27  O2  UNL     1      28.120   1.810  52.937  1.00  0.00    -0.372 OA
HETATM   28  C4  UNL     1      29.055   2.511  53.736  1.00  0.00     0.203 C 
ENDBRANCH   1  27
TORSDOF 5
ENDMDL
