ROOT
HETATM    1  C7  UNL     1      23.985  -0.320  53.858  1.00  0.00     0.158 A 
HETATM    2  N4  UNL     1      24.120  -1.096  54.976  1.00  0.00    -0.220 NA
HETATM    3  C8  UNL     1      22.996  -1.631  55.534  1.00  0.00     0.258 A 
HETATM    4  N5  UNL     1      21.768  -1.417  55.019  1.00  0.00    -0.161 NA
HETATM    5  N6  UNL     1      21.643  -0.666  53.941  1.00  0.00    -0.240 N 
HETATM    6  C9  UNL     1      20.637  -0.232  53.166  1.00  0.00     0.119 A 
HETATM    7  C10 UNL     1      21.114   0.559  52.143  1.00  0.00     0.031 A 
HETATM    8  C11 UNL     1      22.512   0.643  52.265  1.00  0.00    -0.001 A 
HETATM    9  C18 UNL     1      22.724  -0.125  53.370  1.00  0.00     0.112 A 
ENDROOT
BRANCH   1  10
HETATM   10  N3  UNL     1      25.316   0.025  53.504  1.00  0.00    -0.337 N 
HETATM   11  C2  UNL     1      25.947   1.034  54.350  1.00  0.00     0.207 C 
HETATM   12  N2  UNL     1      26.923   0.411  55.303  1.00  0.00    -0.290 N 
HETATM   13  C3  UNL     1      26.668   2.036  53.504  1.00  0.00     0.076 C 
HETATM   14  N1  UNL     1      28.179  -0.083  54.818  1.00  0.00    -0.189 NA
HETATM   15  H2  UNL     1      26.744   0.309  56.353  1.00  0.00     0.184 HD
HETATM   16  C1  UNL     1      28.623  -0.157  53.567  1.00  0.00     0.146 C 
HETATM   17  C5  UNL     1      27.472   0.329  52.723  1.00  0.00    -0.025 C 
HETATM   18  C4  UNL     1      27.399   1.571  52.297  1.00  0.00    -0.013 C 
HETATM   19  C6  UNL     1      26.227  -0.493  52.434  1.00  0.00     0.166 C 
ENDBRANCH   1  10
BRANCH   8  20
HETATM   20  C12 UNL     1      23.330   1.449  51.352  1.00  0.00     0.208 C 
BRANCH  20  21
HETATM   21  O1  UNL     1      23.621   2.696  51.896  1.00  0.00    -0.385 OA
BRANCH  21  22
HETATM   22  C13 UNL     1      23.724   3.621  50.880  1.00  0.00     0.183 C 
BRANCH  22  23
HETATM   23  C14 UNL     1      25.080   4.182  50.630  1.00  0.00     0.074 C 
HETATM   24  C15 UNL     1      25.726   3.575  49.401  1.00  0.00     0.047 C 
HETATM   25  C16 UNL     1      27.057   4.267  49.228  1.00  0.00     0.272 C 
HETATM   26  N7  UNL     1      26.922   5.537  48.550  1.00  0.00     0.092 N 
HETATM   27  C17 UNL     1      26.257   6.549  49.313  1.00  0.00     0.343 C 
HETATM   28  H21 UNL     1      26.438   5.446  47.627  1.00  0.00     0.316 HD
HETATM   29  S1  UNL     1      24.825   5.957  50.219  1.00  0.00    -0.133 SA
ENDBRANCH  22  23
ENDBRANCH  21  22
ENDBRANCH  20  21
ENDBRANCH   8  20
TORSDOF 5
ENDMDL
