ROOT
HETATM    1  C4  UNL     1      22.741  -0.151  53.174  1.00  0.00     0.039 A 
HETATM    2  C5  UNL     1      21.735  -0.639  53.971  1.00  0.00     0.046 A 
HETATM    3  C6  UNL     1      20.285  -0.537  53.689  1.00  0.00     0.071 C 
HETATM    4  N1  UNL     1      22.015  -1.264  55.137  1.00  0.00    -0.246 NA
HETATM    5  C7  UNL     1      23.289  -1.416  55.535  1.00  0.00     0.235 A 
HETATM    6  N2  UNL     1      24.255  -0.933  54.746  1.00  0.00    -0.224 NA
HETATM    7  C8  UNL     1      24.066  -0.308  53.588  1.00  0.00     0.141 A 
ENDROOT
BRANCH   7   8
HETATM    8  N3  UNL     1      25.087   0.189  52.759  1.00  0.00    -0.340 N 
HETATM    9  H9  UNL     1      24.883   0.337  51.744  1.00  0.00     0.167 HD
BRANCH   8  10
HETATM   10  C9  UNL     1      26.424   0.545  53.078  1.00  0.00     0.034 A 
HETATM   11  C10 UNL     1      26.833   1.864  53.303  1.00  0.00     0.029 A 
HETATM   12  C11 UNL     1      28.126   2.190  53.609  1.00  0.00     0.003 A 
HETATM   13  C12 UNL     1      29.100   1.225  53.711  1.00  0.00     0.007 A 
HETATM   14  C13 UNL     1      28.750  -0.077  53.501  1.00  0.00    -0.060 A 
HETATM   15  C14 UNL     1      29.833  -1.077  53.623  1.00  0.00     0.048 C 
HETATM   16  C15 UNL     1      27.455  -0.368  53.198  1.00  0.00     0.036 A 
ENDBRANCH   8  10
ENDBRANCH   7   8
BRANCH   1  17
HETATM   17  C3  UNL     1      22.407   0.485  51.908  1.00  0.00     0.081 C 
HETATM   18  C2  UNL     1      22.564   1.686  51.371  1.00  0.00     0.180 C 
BRANCH  18  19
HETATM   19  O1  UNL     1      22.102   1.932  50.089  1.00  0.00    -0.336 OA
HETATM   20  C1  UNL     1      21.397   1.020  49.282  1.00  0.00     0.212 C 
ENDBRANCH  18  19
BRANCH  18  21
HETATM   21  O2  UNL     1      23.173   2.697  52.058  1.00  0.00    -0.336 OA
HETATM   22  C16 UNL     1      24.078   3.631  51.536  1.00  0.00     0.212 C 
ENDBRANCH  18  21
ENDBRANCH   1  17
TORSDOF 5
ENDMDL
