ROOT
HETATM    1  C11 UNL     1      23.258   4.230  50.936  1.00  0.00     0.025 A 
HETATM    2  C12 UNL     1      23.841   3.636  52.124  1.00  0.00     0.066 A 
HETATM    3  C13 UNL     1      25.127   3.347  52.174  1.00  0.00     0.122 A 
HETATM    4  N3  UNL     1      25.993   3.601  51.077  1.00  0.00    -0.262 N 
HETATM    5  N4  UNL     1      25.440   4.171  49.931  1.00  0.00    -0.177 NA
HETATM    6  C20 UNL     1      24.186   4.463  49.857  1.00  0.00     0.063 A 
HETATM    7  C21 UNL     1      23.724   5.065  48.592  1.00  0.00     0.073 C 
HETATM    8  H25 UNL     1      27.011   3.396  51.054  1.00  0.00     0.191 HD
ENDROOT
BRANCH   1   9
HETATM    9  C2  UNL     1      21.973   4.493  50.985  1.00  0.00     0.081 C 
BRANCH   9  10
HETATM   10  O1  UNL     1      21.535   5.695  51.469  1.00  0.00    -0.357 OA
HETATM   11  C1  UNL     1      21.579   6.936  50.853  1.00  0.00     0.209 C 
ENDBRANCH   9  10
BRANCH   9  12
HETATM   12  C3  UNL     1      20.683   3.870  50.669  1.00  0.00     0.233 C 
BRANCH  12  13
HETATM   13  O2  UNL     1      20.768   2.480  50.639  1.00  0.00    -0.384 OA
BRANCH  13  14
HETATM   14  C4  UNL     1      20.165   1.972  51.765  1.00  0.00     0.172 C 
BRANCH  14  15
HETATM   15  C5  UNL     1      21.092   1.185  52.665  1.00  0.00     0.013 C 
HETATM   16  C6  UNL     1      20.170   0.405  53.615  1.00  0.00     0.037 C 
HETATM   17  C7  UNL     1      21.072  -0.041  54.751  1.00  0.00     0.272 C 
HETATM   18  N1  UNL     1      22.417  -0.288  54.279  1.00  0.00     0.084 N 
HETATM   19  C8  UNL     1      22.972  -1.306  55.166  1.00  0.00     0.309 C 
HETATM   20  C9  UNL     1      22.485  -0.781  52.936  1.00  0.00     0.272 C 
HETATM   21  C10 UNL     1      22.028   0.279  51.947  1.00  0.00     0.037 C 
ENDBRANCH  14  15
ENDBRANCH  13  14
ENDBRANCH  12  13
ENDBRANCH   9  12
ENDBRANCH   1   9
BRANCH   3  22
HETATM   22  N2  UNL     1      25.803   2.764  53.286  1.00  0.00    -0.339 N 
HETATM   23  H21 UNL     1      25.618   3.367  54.123  1.00  0.00     0.167 HD
BRANCH  22  24
HETATM   24  C14 UNL     1      26.575   1.595  53.263  1.00  0.00     0.072 A 
HETATM   25  C15 UNL     1      25.984   0.411  52.961  1.00  0.00     0.034 A 
HETATM   26  C16 UNL     1      26.762  -0.739  52.942  1.00  0.00     0.021 A 
HETATM   27  C17 UNL     1      28.131  -0.684  53.228  1.00  0.00     0.014 A 
HETATM   28 BR1  UNL     1      29.187  -2.267  53.198  1.00  0.00    -0.051 Br
HETATM   29  C18 UNL     1      28.687   0.559  53.531  1.00  0.00     0.063 A 
HETATM   30  C19 UNL     1      27.907   1.720  53.552  1.00  0.00     0.144 A 
HETATM   31  F1  UNL     1      28.510   2.896  53.854  1.00  0.00    -0.204 F 
ENDBRANCH  22  24
ENDBRANCH   3  22
TORSDOF 8
ENDMDL
