ROOT
HETATM    1  C6  UNL     1      22.383   2.208  51.313  1.00  0.00     0.011 A 
HETATM    2  C7  UNL     1      21.514   3.253  51.555  1.00  0.00     0.147 A 
HETATM    3  N1  UNL     1      21.957   4.416  52.062  1.00  0.00    -0.075 NA
HETATM    4  C8  UNL     1      23.251   4.604  52.350  1.00  0.00     0.721 A 
HETATM    5  N3  UNL     1      24.071   3.582  52.108  1.00  0.00    -0.045 NA
HETATM    6  C9  UNL     1      23.734   2.407  51.614  1.00  0.00     0.155 A 
ENDROOT
BRANCH   6   7
HETATM    7  N4  UNL     1      24.637   1.364  51.368  1.00  0.00    -0.340 N 
HETATM    8  H10 UNL     1      24.576   0.866  50.428  1.00  0.00     0.167 HD
BRANCH   7   9
HETATM    9  C10 UNL     1      25.683   0.798  52.147  1.00  0.00     0.033 A 
HETATM   10  C11 UNL     1      25.603  -0.443  52.797  1.00  0.00     0.032 A 
HETATM   11  C12 UNL     1      26.675  -0.904  53.526  1.00  0.00     0.039 A 
HETATM   12  C13 UNL     1      27.856  -0.203  53.660  1.00  0.00     0.068 A 
HETATM   13  C15 UNL     1      27.953   1.018  53.029  1.00  0.00     0.039 A 
HETATM   14  C16 UNL     1      26.874   1.472  52.302  1.00  0.00     0.032 A 
BRANCH  12  15
HETATM   15  O2  UNL     1      28.884  -0.747  54.415  1.00  0.00    -0.356 OA
HETATM   16  C14 UNL     1      30.027  -1.219  53.722  1.00  0.00     0.210 C 
ENDBRANCH  12  15
ENDBRANCH   7   9
ENDBRANCH   6   7
BRANCH   1  17
HETATM   17  C5  UNL     1      21.829   0.939  50.765  1.00  0.00     0.082 C 
BRANCH  17  18
HETATM   18  C4  UNL     1      20.865   0.304  51.699  1.00  0.00    -0.051 A 
HETATM   19  C3  UNL     1      21.555  -0.342  52.825  1.00  0.00     0.071 A 
HETATM   20  C2  UNL     1      20.877  -0.976  53.791  1.00  0.00     0.180 A 
HETATM   21  O3  UNL     1      19.509  -1.013  53.712  1.00  0.00    -0.327 OA
HETATM   22  C18 UNL     1      18.735  -0.431  52.684  1.00  0.00     0.206 A 
HETATM   23  C17 UNL     1      19.538   0.243  51.663  1.00  0.00     0.007 A 
BRANCH  20  24
HETATM   24  O1  UNL     1      21.517  -1.595  54.870  1.00  0.00    -0.336 OA
HETATM   25  C1  UNL     1      22.859  -1.228  55.213  1.00  0.00     0.212 C 
ENDBRANCH  20  24
ENDBRANCH  17  18
ENDBRANCH   1  17
BRANCH   4  26
HETATM   26  N2  UNL     1      23.826   5.799  52.890  1.00  0.00    -0.231 N 
HETATM   27  H8  UNL     1      23.435   6.551  53.498  1.00  0.00     0.174 HD
HETATM   28  H9  UNL     1      24.837   5.999  52.654  1.00  0.00     0.174 HD
ENDBRANCH   4  26
TORSDOF 7
ENDMDL
