ROOT
HETATM    1  C3  UNL     1      26.185   1.569  51.310  1.00  0.00     0.010 C 
HETATM    2  C4  UNL     1      25.163   1.124  51.973  1.00  0.00    -0.013 A 
HETATM    3  C5  UNL     1      25.550   0.205  53.055  1.00  0.00     0.097 A 
HETATM    4  N1  UNL     1      24.729  -0.382  53.856  1.00  0.00    -0.150 NA
HETATM    5  N2  UNL     1      23.333  -0.154  53.723  1.00  0.00    -0.165 NA
HETATM    6  C13 UNL     1      22.936   0.660  52.774  1.00  0.00     0.128 A 
HETATM    7  C14 UNL     1      23.752   1.430  51.759  1.00  0.00     0.096 A 
ENDROOT
BRANCH   3   8
HETATM    8  C6  UNL     1      26.932  -0.171  53.375  1.00  0.00     0.001 A 
HETATM    9  C7  UNL     1      27.662   0.667  54.195  1.00  0.00     0.016 A 
HETATM   10  C8  UNL     1      28.972   0.254  54.463  1.00  0.00     0.025 A 
HETATM   11  C9  UNL     1      29.512  -0.909  53.949  1.00  0.00     0.034 A 
HETATM   12 CL1  UNL     1      31.157  -1.342  54.340  1.00  0.00    -0.084 Cl
HETATM   13  C10 UNL     1      28.731  -1.708  53.134  1.00  0.00     0.031 A 
HETATM   14  C11 UNL     1      27.416  -1.350  52.830  1.00  0.00    -0.048 A 
HETATM   15  C12 UNL     1      26.632  -2.238  51.956  1.00  0.00     0.049 C 
ENDBRANCH   3   8
BRANCH   1  16
HETATM   16  C2  UNL     1      26.137   2.492  50.183  1.00  0.00    -0.010 C 
HETATM   17  C1  UNL     1      26.493   3.762  50.072  1.00  0.00     0.011 C 
ENDBRANCH   1  16
BRANCH   7  18
HETATM   18  C15 UNL     1      23.397   2.869  51.892  1.00  0.00    -0.042 A 
HETATM   19  C16 UNL     1      22.513   3.230  50.867  1.00  0.00     0.027 A 
HETATM   20  C17 UNL     1      22.042   4.544  50.784  1.00  0.00     0.116 A 
HETATM   21  N3  UNL     1      22.437   5.455  51.687  1.00  0.00    -0.273 NA
HETATM   22  C18 UNL     1      23.282   5.113  52.669  1.00  0.00     0.116 A 
HETATM   23  C19 UNL     1      23.778   3.838  52.800  1.00  0.00     0.027 A 
ENDBRANCH   7  18
TORSDOF 3
ENDMDL
