ROOT
HETATM    1  C5  UNL     1      26.413   2.350  51.216  1.00  0.00     0.129 C 
HETATM    2  C6  UNL     1      27.197   2.358  52.342  1.00  0.00     0.054 C 
HETATM    3  C7  UNL     1      27.858   1.356  53.014  1.00  0.00     0.054 C 
HETATM    4  C8  UNL     1      27.514   0.412  53.952  1.00  0.00     0.124 C 
HETATM    5  N3  UNL     1      26.223   0.219  54.258  1.00  0.00    -0.242 NA
HETATM    6  C10 UNL     1      25.598  -0.904  53.862  1.00  0.00     0.138 C 
HETATM    7  C11 UNL     1      24.540  -0.018  53.629  1.00  0.00     0.137 C 
HETATM    8  N4  UNL     1      23.885   1.063  53.147  1.00  0.00    -0.253 NA
HETATM    9  C12 UNL     1      24.517   2.147  52.645  1.00  0.00     0.234 C 
HETATM   10  N5  UNL     1      25.327   1.709  51.681  1.00  0.00    -0.225 NA
ENDROOT
BRANCH   1  11
HETATM   11  N1  UNL     1      26.540   2.821  49.887  1.00  0.00    -0.341 N 
HETATM   12  H3  UNL     1      26.559   2.085  49.176  1.00  0.00     0.167 HD
BRANCH  11  13
HETATM   13  C4  UNL     1      26.638   4.178  49.500  1.00  0.00     0.035 A 
HETATM   14  C3  UNL     1      27.608   4.728  48.702  1.00  0.00     0.032 A 
HETATM   15  C2  UNL     1      27.673   6.053  48.350  1.00  0.00     0.046 A 
HETATM   16  C1  UNL     1      26.685   6.902  48.833  1.00  0.00     0.138 A 
HETATM   17  F1  UNL     1      26.665   8.222  48.539  1.00  0.00    -0.204 F 
HETATM   18  C14 UNL     1      25.686   6.403  49.638  1.00  0.00     0.074 A 
HETATM   19  C13 UNL     1      25.685   5.081  49.947  1.00  0.00     0.056 A 
HETATM   20 CL2  UNL     1      24.441   7.489  50.243  1.00  0.00    -0.081 Cl
ENDBRANCH  11  13
ENDBRANCH   1  11
BRANCH   4  21
HETATM   21  N2  UNL     1      28.573  -0.306  54.544  1.00  0.00    -0.362 N 
HETATM   22  H6  UNL     1      28.596  -0.319  55.603  1.00  0.00     0.162 HD
BRANCH  21  23
HETATM   23  C9  UNL     1      29.598  -1.003  53.797  1.00  0.00     0.237 C 
HETATM   24 CL1  UNL     1      29.012  -2.547  53.113  1.00  0.00    -0.109 Cl
ENDBRANCH  21  23
ENDBRANCH   4  21
TORSDOF 4
ENDMDL
