ROOT
HETATM    1  N1  UNL     1      19.153   0.667  50.823  1.00  0.00    -0.191 NA
HETATM    2  C1  UNL     1      19.901   0.314  51.644  1.00  0.00     0.103 C 
HETATM    3  C2  UNL     1      20.833  -0.101  52.643  1.00  0.00     0.089 A 
HETATM    4  C3  UNL     1      20.388  -0.693  53.823  1.00  0.00     0.142 A 
HETATM    5  N2  UNL     1      21.246  -1.096  54.787  1.00  0.00    -0.259 NA
HETATM    6  C4  UNL     1      22.587  -0.953  54.671  1.00  0.00     0.069 A 
HETATM    7  C5  UNL     1      23.433  -1.378  55.677  1.00  0.00     0.035 A 
HETATM    8  C6  UNL     1      24.807  -1.200  55.492  1.00  0.00     0.035 A 
HETATM    9  C7  UNL     1      25.286  -0.613  54.325  1.00  0.00     0.067 A 
HETATM   10  C10 UNL     1      24.427  -0.193  53.330  1.00  0.00     0.048 A 
HETATM   11  C11 UNL     1      23.071  -0.372  53.517  1.00  0.00     0.023 A 
HETATM   12  C12 UNL     1      22.208   0.045  52.524  1.00  0.00     0.067 A 
ENDROOT
BRANCH  12  13
HETATM   13  N4  UNL     1      22.627   0.655  51.304  1.00  0.00    -0.354 N 
HETATM   14  H5  UNL     1      22.671   0.220  50.358  1.00  0.00     0.166 HD
BRANCH  13  15
HETATM   15  C13 UNL     1      23.028   2.009  51.399  1.00  0.00     0.033 A 
HETATM   16  C14 UNL     1      22.408   2.901  52.229  1.00  0.00     0.029 A 
HETATM   17  C15 UNL     1      22.747   4.214  52.363  1.00  0.00     0.004 A 
HETATM   18  C16 UNL     1      23.796   4.681  51.605  1.00  0.00     0.019 A 
HETATM   19  C17 UNL     1      24.477   3.852  50.743  1.00  0.00     0.013 A 
HETATM   20 BR1  UNL     1      25.929   4.536  49.707  1.00  0.00    -0.051 Br
HETATM   21  C18 UNL     1      24.081   2.539  50.658  1.00  0.00     0.048 A 
ENDBRANCH  13  15
ENDBRANCH  12  13
BRANCH   9  22
HETATM   22  N3  UNL     1      26.713  -0.464  54.210  1.00  0.00    -0.202 NA
BRANCH  22  23
HETATM   23  C8  UNL     1      27.211   0.685  53.912  1.00  0.00     0.044 C 
HETATM   24  C9  UNL     1      27.887   1.663  53.433  1.00  0.00     0.295 C 
HETATM   25  O1  UNL     1      28.522   2.587  52.880  1.00  0.00    -0.272 OA
ENDBRANCH  22  23
ENDBRANCH   9  22
TORSDOF 4
ENDMDL
