ROOT
HETATM    1  C1  UNL     1      23.416   1.334  52.071  1.00  0.00     0.035 A 
HETATM    2  C2  UNL     1      22.975   1.904  50.824  1.00  0.00     0.007 A 
HETATM    3  C3  UNL     1      22.107   0.883  51.185  1.00  0.00     0.021 A 
HETATM    4  C4  UNL     1      21.911  -0.158  52.283  1.00  0.00     0.006 C 
HETATM    5  C5  UNL     1      22.144  -0.892  53.417  1.00  0.00     0.236 C 
HETATM    6  N1  UNL     1      23.186  -0.986  54.519  1.00  0.00     0.113 N 
HETATM    7  C6  UNL     1      24.625  -0.821  55.071  1.00  0.00     0.388 A 
HETATM    8  O1  UNL     1      23.783  -0.772  54.176  1.00  0.00    -0.140 OA
HETATM    9  C7  UNL     1      25.662  -0.344  54.017  1.00  0.00     0.017 A 
HETATM   10  C8  UNL     1      26.285  -1.306  53.255  1.00  0.00     0.012 A 
HETATM   11  C9  UNL     1      26.843  -0.920  52.006  1.00  0.00     0.002 A 
HETATM   12  C10 UNL     1      26.682   0.447  51.669  1.00  0.00     0.011 A 
HETATM   13  C11 UNL     1      26.028   1.264  52.557  1.00  0.00    -0.035 A 
HETATM   14  C12 UNL     1      25.473   0.999  53.797  1.00  0.00     0.024 A 
HETATM   15  C13 UNL     1      25.651   2.384  51.639  1.00  0.00     0.023 C 
HETATM   16  C14 UNL     1      24.394   2.546  50.992  1.00  0.00     0.001 C 
HETATM   17  H7  UNL     1      22.573  -1.343  55.382  1.00  0.00     0.328 HD
ENDROOT
BRANCH  16  18
HETATM   18  C15 UNL     1      24.236   3.737  50.202  1.00  0.00     0.156 A 
HETATM   19  N2  UNL     1      23.168   4.412  49.815  1.00  0.00    -0.241 NA
HETATM   20  C16 UNL     1      23.136   5.525  49.084  1.00  0.00     0.121 A 
HETATM   21  C17 UNL     1      24.339   6.035  48.680  1.00  0.00     0.052 A 
HETATM   22  C18 UNL     1      25.498   5.406  49.030  1.00  0.00     0.072 A 
HETATM   23  N4  UNL     1      25.334   4.336  49.745  1.00  0.00    -0.228 NA
BRANCH  22  24
HETATM   24  C19 UNL     1      26.807   5.892  48.621  1.00  0.00     0.010 A 
HETATM   25  C20 UNL     1      27.887   5.036  48.571  1.00  0.00     0.017 A 
HETATM   26  C21 UNL     1      29.140   5.487  48.184  1.00  0.00     0.020 A 
HETATM   27  C22 UNL     1      29.343   6.827  47.833  1.00  0.00     0.116 A 
HETATM   28  N3  UNL     1      28.272   7.657  47.886  1.00  0.00    -0.272 NA
HETATM   29  C23 UNL     1      27.073   7.188  48.265  1.00  0.00     0.130 A 
ENDBRANCH  22  24
ENDBRANCH  16  18
TORSDOF 2
ENDMDL
