ROOT
HETATM    1  C1  UNL     1      20.981  -1.383  54.430  1.00  0.00     0.112 C 
HETATM    2  C2  UNL     1      22.053  -0.581  53.790  1.00  0.00    -0.101 C 
HETATM    3  C3  UNL     1      22.926   0.092  53.279  1.00  0.00    -0.006 C 
ENDROOT
BRANCH   3   4
HETATM    4  C4  UNL     1      23.931   0.893  52.668  1.00  0.00     0.301 C 
HETATM    5  O1  UNL     1      23.801   2.122  52.385  1.00  0.00    -0.258 OA
HETATM    6  N1  UNL     1      25.210   0.416  52.299  1.00  0.00    -0.307 N 
HETATM    7  H4  UNL     1      25.217  -0.642  52.515  1.00  0.00     0.170 HD
BRANCH   6   8
HETATM    8  C5  UNL     1      26.519   0.363  51.802  1.00  0.00     0.076 C 
HETATM    9  C6  UNL     1      27.343  -0.651  51.961  1.00  0.00     0.062 C 
HETATM   10  C7  UNL     1      26.667  -1.715  52.771  1.00  0.00     0.233 C 
HETATM   11  N2  UNL     1      26.548  -1.121  54.107  1.00  0.00    -0.255 NA
HETATM   12  N5  UNL     1      27.451  -2.921  52.766  1.00  0.00    -0.373 N 
HETATM   13  C8  UNL     1      27.030   0.035  54.346  1.00  0.00     0.208 C 
HETATM   14  N3  UNL     1      27.706   1.205  53.966  1.00  0.00    -0.317 N 
HETATM   15  C9  UNL     1      27.418   2.546  53.551  1.00  0.00     0.155 C 
HETATM   16  C11 UNL     1      29.074   0.744  54.126  1.00  0.00     0.191 C 
HETATM   17  C10 UNL     1      26.792   2.633  52.227  1.00  0.00     0.253 C 
HETATM   18  N4  UNL     1      26.340   1.751  51.336  1.00  0.00    -0.289 NA
HETATM   19  F1  UNL     1      29.750   1.843  54.591  1.00  0.00    -0.186 F 
HETATM   20  C12 UNL     1      29.773  -0.385  53.958  1.00  0.00     0.063 C 
HETATM   21  C13 UNL     1      29.761  -1.807  53.560  1.00  0.00     0.021 C 
HETATM   22  C14 UNL     1      28.639  -2.313  53.184  1.00  0.00     0.085 C 
HETATM   23  H14 UNL     1      26.987  -3.803  52.491  1.00  0.00     0.161 HD
ENDBRANCH   6   8
ENDBRANCH   3   4
TORSDOF 2
ENDMDL
