ROOT
HETATM    1  C1  UNL     1      22.530   4.306  48.180  1.00  0.00     0.112 C 
HETATM    2  C2  UNL     1      23.637   3.897  49.046  1.00  0.00    -0.103 C 
HETATM    3  C3  UNL     1      24.535   3.549  49.768  1.00  0.00    -0.029 C 
ENDROOT
BRANCH   3   4
HETATM    4  C4  UNL     1      25.621   3.149  50.614  1.00  0.00     0.210 C 
HETATM    5  O1  UNL     1      26.831   3.275  50.284  1.00  0.00    -0.283 OA
BRANCH   4   6
HETATM    6  C5  UNL     1      25.165   2.557  51.953  1.00  0.00     0.092 C 
HETATM    7  C6  UNL     1      26.369   2.083  52.664  1.00  0.00    -0.001 C 
HETATM    8  C7  UNL     1      27.240   1.283  53.338  1.00  0.00     0.006 C 
HETATM    9  C8  UNL     1      28.547   1.889  53.682  1.00  0.00     0.192 C 
HETATM   10  C10 UNL     1      26.961  -0.131  53.705  1.00  0.00     0.158 C 
HETATM   11  N1  UNL     1      29.479   0.888  54.053  1.00  0.00    -0.278 NA
HETATM   12  C9  UNL     1      29.224  -0.331  54.257  1.00  0.00     0.229 C 
HETATM   13  N2  UNL     1      27.901  -0.900  54.110  1.00  0.00    -0.222 NA
HETATM   14  N3  UNL     1      25.564  -0.147  53.655  1.00  0.00    -0.241 NA
HETATM   15  C11 UNL     1      24.856  -0.789  54.560  1.00  0.00     0.119 C 
HETATM   16  C12 UNL     1      23.406  -0.972  54.781  1.00  0.00     0.016 C 
HETATM   17  C13 UNL     1      22.354  -0.477  54.136  1.00  0.00    -0.009 C 
HETATM   18  C14 UNL     1      22.124   0.430  52.973  1.00  0.00     0.026 C 
HETATM   19 BR1  UNL     1      20.176   0.633  52.714  1.00  0.00    -0.086 Br
HETATM   20  C15 UNL     1      23.389   0.773  52.536  1.00  0.00     0.067 C 
HETATM   21  C16 UNL     1      24.169   1.522  51.572  1.00  0.00     0.024 C 
ENDBRANCH   4   6
ENDBRANCH   3   4
TORSDOF 2
ENDMDL
