ROOT
HETATM    1  C2  UNL     1      26.093   0.943  52.851  1.00  0.00     0.081 A 
HETATM    2  C3  UNL     1      24.807   0.774  52.605  1.00  0.00     0.052 A 
HETATM    3  C4  UNL     1      24.158  -0.044  53.611  1.00  0.00     0.041 A 
HETATM    4  C5  UNL     1      25.163  -0.366  54.493  1.00  0.00     0.085 A 
HETATM    5  N1  UNL     1      24.867  -1.151  55.539  1.00  0.00    -0.242 NA
HETATM    6  C6  UNL     1      23.598  -1.584  55.669  1.00  0.00     0.235 A 
HETATM    7  N2  UNL     1      22.642  -1.252  54.794  1.00  0.00    -0.223 NA
HETATM    8  C7  UNL     1      22.868  -0.463  53.715  1.00  0.00     0.147 A 
HETATM    9  C13 UNL     1      26.456   0.238  54.091  1.00  0.00     0.230 A 
ENDROOT
BRANCH   8  10
HETATM   10  N3  UNL     1      21.783  -0.135  52.902  1.00  0.00    -0.316 N 
HETATM   11  C8  UNL     1      21.652   0.599  51.705  1.00  0.00     0.094 A 
HETATM   12  C9  UNL     1      20.571   0.800  51.003  1.00  0.00    -0.004 A 
HETATM   13  C10 UNL     1      19.285   0.221  51.449  1.00  0.00     0.076 A 
HETATM   14  C11 UNL     1      19.352  -0.547  52.682  1.00  0.00     0.008 A 
HETATM   15 BR1  UNL     1      17.743  -1.311  53.306  1.00  0.00    -0.054 Br
HETATM   16  C12 UNL     1      20.500  -0.680  53.298  1.00  0.00     0.113 A 
ENDBRANCH   8  10
BRANCH   1  17
HETATM   17  O1  UNL     1      27.038   1.657  52.121  1.00  0.00    -0.357 OA
HETATM   18  C1  UNL     1      26.651   2.622  51.159  1.00  0.00     0.209 C 
ENDBRANCH   1  17
BRANCH   9  19
HETATM   19  O2  UNL     1      27.479  -0.680  53.962  1.00  0.00    -0.378 OA
HETATM   20  C14 UNL     1      28.587  -0.065  54.595  1.00  0.00     0.203 C 
ENDBRANCH   9  19
TORSDOF 3
ENDMDL
