ROOT
HETATM    1  N1  UNL     1      22.829   1.207  51.984  1.00  0.00    -0.251 N 
HETATM    2  N2  UNL     1      23.772   0.724  52.776  1.00  0.00    -0.170 NA
HETATM    3  C4  UNL     1      24.966   1.278  52.523  1.00  0.00     0.096 A 
HETATM    4  C13 UNL     1      24.689   2.162  51.491  1.00  0.00     0.087 A 
HETATM    5  C14 UNL     1      25.469   3.044  50.766  1.00  0.00     0.139 A 
HETATM    6  N5  UNL     1      24.992   3.830  49.783  1.00  0.00    -0.224 NA
HETATM    7  C15 UNL     1      23.664   3.768  49.469  1.00  0.00     0.237 A 
HETATM    8  N6  UNL     1      22.887   2.917  50.162  1.00  0.00    -0.222 NA
HETATM    9  C16 UNL     1      23.355   2.136  51.135  1.00  0.00     0.163 A 
ENDROOT
BRANCH   3  10
HETATM   10  C5  UNL     1      26.291   1.107  53.091  1.00  0.00     0.048 C 
HETATM   11  C6  UNL     1      26.945  -0.043  53.067  1.00  0.00    -0.006 C 
HETATM   12  C7  UNL     1      26.385  -1.245  52.463  1.00  0.00     0.016 C 
HETATM   13  C11 UNL     1      28.271  -0.150  53.654  1.00  0.00     0.052 C 
HETATM   14  C8  UNL     1      27.113  -2.364  52.482  1.00  0.00     0.038 C 
HETATM   15  C9  UNL     1      28.439  -2.349  53.105  1.00  0.00     0.079 C 
HETATM   16  C10 UNL     1      29.006  -1.169  53.250  1.00  0.00     0.040 C 
BRANCH  15  17
HETATM   17  O1  UNL     1      29.086  -3.518  53.530  1.00  0.00    -0.360 OA
HETATM   18  H11 UNL     1      29.252  -3.644  54.517  1.00  0.00     0.217 HD
ENDBRANCH  15  17
BRANCH  13  19
HETATM   19  N3  UNL     1      28.691   0.815  54.601  1.00  0.00    -0.393 N 
HETATM   20  C12 UNL     1      29.487   2.007  54.818  1.00  0.00     0.146 C 
HETATM   21  H12 UNL     1      28.250   0.581  55.536  1.00  0.00     0.159 HD
ENDBRANCH  13  19
ENDBRANCH   3  10
BRANCH   1  22
HETATM   22  C3  UNL     1      21.448   0.803  52.021  1.00  0.00     0.153 C 
BRANCH  22  23
HETATM   23  C2  UNL     1      21.241  -0.278  53.062  1.00  0.00     0.018 C 
HETATM   24  C1  UNL     1      20.721   0.299  54.347  1.00  0.00     0.007 C 
ENDBRANCH  22  23
ENDBRANCH   1  22
BRANCH   5  25
HETATM   25  N4  UNL     1      26.858   3.183  51.019  1.00  0.00    -0.383 N 
HETATM   26  H16 UNL     1      27.831   3.273  50.679  1.00  0.00     0.157 HD
HETATM   27  H17 UNL     1      27.271   3.239  51.997  1.00  0.00     0.157 HD
ENDBRANCH   5  25
TORSDOF 6
ENDMDL
