ROOT
HETATM    1  C2  UNL     1      27.178   1.308  53.996  1.00  0.00     0.080 C 
HETATM    2  C3  UNL     1      26.023   0.712  54.137  1.00  0.00     0.017 C 
HETATM    3  C4  UNL     1      24.699   0.124  54.129  1.00  0.00     0.086 C 
HETATM    4  C5  UNL     1      23.952   0.264  52.829  1.00  0.00     0.030 C 
HETATM    5  N1  UNL     1      24.408   0.624  51.674  1.00  0.00    -0.264 NA
HETATM    6  C6  UNL     1      25.303   1.672  51.465  1.00  0.00     0.260 A 
HETATM    7  C7  UNL     1      26.110   2.639  51.121  1.00  0.00     0.049 A 
HETATM    8  C8  UNL     1      26.167   3.553  49.963  1.00  0.00     0.155 C 
HETATM    9  N2  UNL     1      26.087   4.933  50.177  1.00  0.00    -0.268 NA
HETATM   10  S1  UNL     1      24.590   5.675  50.581  1.00  0.00    -0.076 SA
HETATM   11  C9  UNL     1      23.292   4.494  50.933  1.00  0.00     0.209 A 
HETATM   12  C10 UNL     1      23.592   5.250  52.018  1.00  0.00     0.667 A 
HETATM   13  N3  UNL     1      22.916   4.122  52.271  1.00  0.00    -0.065 NA
HETATM   14  C11 UNL     1      22.552   3.279  51.338  1.00  0.00     0.161 A 
HETATM   15  C12 UNL     1      22.218   2.407  52.388  1.00  0.00     0.037 A 
HETATM   16  C13 UNL     1      21.865   1.337  51.613  1.00  0.00     0.009 A 
HETATM   17  C14 UNL     1      21.792   1.053  50.282  1.00  0.00     0.052 A 
HETATM   18  C15 UNL     1      22.081   1.810  49.182  1.00  0.00     0.014 A 
HETATM   19  C16 UNL     1      22.383   2.719  50.126  1.00  0.00     0.020 A 
HETATM   20  C17 UNL     1      23.069   3.852  49.759  1.00  0.00     0.087 A 
HETATM   21  N4  UNL     1      21.594   0.012  52.142  1.00  0.00    -0.388 N 
HETATM   22  C18 UNL     1      22.552  -0.160  53.185  1.00  0.00     0.174 C 
HETATM   23  N5  UNL     1      26.499   2.049  52.340  1.00  0.00    -0.328 N 
HETATM   24  C19 UNL     1      27.611   2.161  52.904  1.00  0.00     0.130 C 
HETATM   25  H10 UNL     1      26.533   5.468  49.400  1.00  0.00     0.134 HD
HETATM   26  H16 UNL     1      20.922  -0.731  51.936  1.00  0.00     0.159 HD
ENDROOT
BRANCH   1  27
HETATM   27  O1  UNL     1      28.408   1.508  54.588  1.00  0.00    -0.355 OA
HETATM   28  C1  UNL     1      29.613   0.889  54.199  1.00  0.00     0.210 C 
ENDBRANCH   1  27
TORSDOF 1
ENDMDL
