ROOT
HETATM    1  C3  UNL     1      26.780   0.200  52.301  1.00  0.00     0.049 C 
HETATM    2  C4  UNL     1      25.644  -0.229  52.990  1.00  0.00     0.051 C 
HETATM    3  C5  UNL     1      24.458  -0.745  53.777  1.00  0.00     0.113 C 
HETATM    4  N1  UNL     1      23.120  -0.447  53.742  1.00  0.00    -0.292 NA
HETATM    5  C6  UNL     1      22.841   0.570  52.715  1.00  0.00     0.209 C 
HETATM    6  C7  UNL     1      23.096   1.857  52.338  1.00  0.00     0.065 C 
HETATM    7  C8  UNL     1      22.334   1.849  51.188  1.00  0.00    -0.011 C 
HETATM    8  N2  UNL     1      21.652   1.865  50.136  1.00  0.00    -0.101 N 
HETATM    9  C9  UNL     1      23.715   3.215  52.567  1.00  0.00     0.144 C 
HETATM   10  N3  UNL     1      24.822   3.315  51.583  1.00  0.00    -0.379 N 
HETATM   11  C22 UNL     1      25.596   2.283  52.153  1.00  0.00     0.129 C 
HETATM   12  C23 UNL     1      26.464   1.358  51.327  1.00  0.00     0.084 C 
ENDROOT
BRANCH  10  13
HETATM   13  C10 UNL     1      24.888   4.264  50.543  1.00  0.00     0.032 A 
HETATM   14  C11 UNL     1      26.189   4.286  50.033  1.00  0.00     0.039 A 
HETATM   15  C12 UNL     1      26.522   5.235  49.048  1.00  0.00    -0.025 A 
HETATM   16  C13 UNL     1      27.908   5.251  48.526  1.00  0.00     0.051 C 
HETATM   17  C14 UNL     1      25.482   6.069  48.683  1.00  0.00     0.097 A 
HETATM   18  C20 UNL     1      24.221   6.022  49.191  1.00  0.00     0.070 A 
HETATM   19 CL1  UNL     1      23.063   7.185  48.589  1.00  0.00    -0.081 Cl
HETATM   20  C21 UNL     1      23.896   5.099  50.149  1.00  0.00     0.056 A 
BRANCH  17  21
HETATM   21  O2  UNL     1      25.972   7.003  47.688  1.00  0.00    -0.344 OA
BRANCH  21  22
HETATM   22  C15 UNL     1      25.765   8.340  48.216  1.00  0.00     0.214 C 
BRANCH  22  23
HETATM   23  C16 UNL     1      26.893   8.793  49.010  1.00  0.00    -0.034 A 
HETATM   24  C17 UNL     1      27.414   9.239  50.131  1.00  0.00     0.009 A 
HETATM   25  C18 UNL     1      28.728   9.281  49.512  1.00  0.00     0.001 A 
HETATM   26  C19 UNL     1      28.236   8.836  48.366  1.00  0.00     0.009 A 
ENDBRANCH  22  23
ENDBRANCH  21  22
ENDBRANCH  17  21
ENDBRANCH  10  13
BRANCH   1  27
HETATM   27  O1  UNL     1      27.827  -0.506  52.682  1.00  0.00    -0.356 OA
BRANCH  27  28
HETATM   28  C2  UNL     1      28.591  -0.245  53.822  1.00  0.00     0.170 C 
HETATM   29  C1  UNL     1      29.949  -0.906  53.724  1.00  0.00     0.034 C 
ENDBRANCH  27  28
ENDBRANCH   1  27
TORSDOF 6
ENDMDL
