ROOT
HETATM    1  C7  UNL     1      27.180   1.743  52.903  1.00  0.00     0.045 A 
HETATM    2  C8  UNL     1      28.466   1.688  53.391  1.00  0.00     0.049 A 
HETATM    3  C9  UNL     1      28.897   0.811  54.362  1.00  0.00     0.122 A 
HETATM    4  N2  UNL     1      28.001  -0.054  54.871  1.00  0.00    -0.236 NA
HETATM    5  C10 UNL     1      26.737  -0.033  54.422  1.00  0.00     0.183 A 
HETATM    6  O2  UNL     1      25.712  -0.763  54.759  1.00  0.00    -0.291 OA
HETATM    7  C11 UNL     1      24.625  -0.455  54.101  1.00  0.00     0.085 A 
HETATM    8  C12 UNL     1      24.974   0.572  53.254  1.00  0.00     0.011 A 
HETATM    9  C13 UNL     1      26.307   0.839  53.456  1.00  0.00     0.056 A 
HETATM   10  C14 UNL     1      23.926   0.947  52.547  1.00  0.00    -0.008 A 
HETATM   11  C15 UNL     1      22.748   0.122  52.921  1.00  0.00     0.058 A 
HETATM   12  C16 UNL     1      23.346  -0.761  53.955  1.00  0.00     0.015 A 
ENDROOT
BRANCH   1  13
HETATM   13  N1  UNL     1      26.849   2.664  51.911  1.00  0.00    -0.385 N 
HETATM   14  H8  UNL     1      26.843   3.627  52.249  1.00  0.00     0.160 HD
BRANCH  13  15
HETATM   15  C6  UNL     1      26.508   2.637  50.507  1.00  0.00     0.158 C 
BRANCH  15  16
HETATM   16  C5  UNL     1      26.273   3.982  49.921  1.00  0.00    -0.040 A 
HETATM   17  C4  UNL     1      27.320   4.394  49.086  1.00  0.00     0.011 A 
HETATM   18  C3  UNL     1      27.357   5.603  48.430  1.00  0.00     0.037 A 
HETATM   19  C2  UNL     1      26.317   6.492  48.579  1.00  0.00     0.068 A 
HETATM   20  C18 UNL     1      25.288   6.094  49.398  1.00  0.00     0.037 A 
HETATM   21  C17 UNL     1      25.246   4.888  50.054  1.00  0.00     0.011 A 
BRANCH  19  22
HETATM   22  O1  UNL     1      26.204   7.728  47.998  1.00  0.00    -0.356 OA
HETATM   23  C1  UNL     1      27.022   8.192  46.953  1.00  0.00     0.210 C 
ENDBRANCH  19  22
ENDBRANCH  15  16
ENDBRANCH  13  15
ENDBRANCH   1  13
TORSDOF 4
ENDMDL
