ROOT
HETATM    1  C2  UNL     1      24.371   3.881  50.881  1.00  0.00     0.101 A 
HETATM    2  C3  UNL     1      24.619   4.997  50.216  1.00  0.00     0.048 A 
HETATM    3  C4  UNL     1      25.866   5.120  49.460  1.00  0.00    -0.034 A 
HETATM    4  C5  UNL     1      26.084   6.248  48.806  1.00  0.00     0.124 C 
HETATM    5  C12 UNL     1      26.862   4.037  49.415  1.00  0.00     0.070 A 
HETATM    6  C13 UNL     1      26.410   2.873  50.217  1.00  0.00     0.017 A 
HETATM    7  C14 UNL     1      25.287   2.747  50.904  1.00  0.00     0.098 A 
ENDROOT
BRANCH   4   8
HETATM    8  N1  UNL     1      27.180   6.633  48.011  1.00  0.00    -0.262 NA
HETATM    9  C6  UNL     1      27.947   7.648  48.243  1.00  0.00     0.076 A 
HETATM   10  C7  UNL     1      29.023   7.807  47.230  1.00  0.00     0.091 A 
HETATM   11  C11 UNL     1      27.706   8.495  49.403  1.00  0.00     0.142 A 
HETATM   12  C8  UNL     1      29.820   8.996  47.617  1.00  0.00    -0.002 A 
HETATM   13  C9  UNL     1      29.652   9.807  48.661  1.00  0.00     0.010 A 
HETATM   14 BR1  UNL     1      30.756  11.329  49.063  1.00  0.00    -0.051 Br
HETATM   15  C10 UNL     1      28.539   9.504  49.557  1.00  0.00     0.063 A 
HETATM   16  F1  UNL     1      26.705   8.269  50.263  1.00  0.00    -0.204 F 
ENDBRANCH   4   8
BRANCH   1  17
HETATM   17  O1  UNL     1      23.192   3.746  51.603  1.00  0.00    -0.353 OA
HETATM   18  C1  UNL     1      22.648   4.770  52.398  1.00  0.00     0.210 C 
ENDBRANCH   1  17
BRANCH   7  19
HETATM   19  O2  UNL     1      25.002   1.586  51.611  1.00  0.00    -0.348 OA
BRANCH  19  20
HETATM   20  C15 UNL     1      25.153   1.563  53.019  1.00  0.00     0.180 C 
BRANCH  20  21
HETATM   21  C16 UNL     1      25.878   0.298  53.447  1.00  0.00     0.013 C 
HETATM   22  C17 UNL     1      26.672   0.610  54.677  1.00  0.00     0.037 C 
HETATM   23  C18 UNL     1      28.156   0.434  54.476  1.00  0.00     0.272 C 
HETATM   24  N2  UNL     1      28.498  -0.854  53.942  1.00  0.00     0.084 N 
HETATM   25  C19 UNL     1      29.921  -0.804  53.574  1.00  0.00     0.309 C 
HETATM   26  C20 UNL     1      27.694  -1.250  52.804  1.00  0.00     0.272 C 
HETATM   27  C21 UNL     1      26.841  -0.085  52.351  1.00  0.00     0.037 C 
ENDBRANCH  20  21
ENDBRANCH  19  20
ENDBRANCH   7  19
TORSDOF 5
ENDMDL
