ROOT
HETATM    1  C1  UNL     1      24.205   7.039  51.113  1.00  0.00     0.159 C 
HETATM    2  N1  UNL     1      23.851   5.799  50.505  1.00  0.00    -0.354 N 
HETATM    3  C2  UNL     1      25.069   5.827  49.876  1.00  0.00    -0.060 C 
HETATM    4  C3  UNL     1      26.139   5.862  49.322  1.00  0.00     0.061 A 
HETATM    5  C4  UNL     1      27.455   5.906  48.605  1.00  0.00     0.020 A 
HETATM    6  C5  UNL     1      27.468   4.609  48.704  1.00  0.00     0.003 A 
HETATM    7  C6  UNL     1      26.240   4.328  49.367  1.00  0.00     0.020 A 
HETATM    8  C7  UNL     1      25.599   3.284  49.771  1.00  0.00     0.015 C 
HETATM    9  C8  UNL     1      24.329   3.361  50.419  1.00  0.00     0.045 C 
HETATM   10  C9  UNL     1      23.386   2.171  50.188  1.00  0.00     0.026 C 
HETATM   11  C17 UNL     1      23.505   4.541  49.880  1.00  0.00     0.149 C 
ENDROOT
BRANCH   9  12
HETATM   12  C10 UNL     1      24.323   3.460  51.949  1.00  0.00     0.166 C 
HETATM   13  O1  UNL     1      23.929   3.959  53.089  1.00  0.00    -0.176 OA
HETATM   14  N2  UNL     1      25.365   2.393  52.275  1.00  0.00    -0.332 N 
HETATM   15  H11 UNL     1      26.085   2.103  51.531  1.00  0.00     0.168 HD
BRANCH  14  16
HETATM   16  C11 UNL     1      26.194   1.498  53.137  1.00  0.00     0.075 C 
HETATM   17  C12 UNL     1      27.288   2.284  52.993  1.00  0.00     0.037 C 
HETATM   18  C13 UNL     1      28.647   1.984  53.655  1.00  0.00     0.003 C 
HETATM   19  C14 UNL     1      29.256   0.765  53.774  1.00  0.00     0.001 C 
HETATM   20  C15 UNL     1      28.678  -0.448  53.267  1.00  0.00     0.007 C 
HETATM   21  C16 UNL     1      27.442  -1.123  53.187  1.00  0.00     0.052 C 
HETATM   22  S1  UNL     1      26.136  -0.066  53.999  1.00  0.00    -0.084 SA
ENDBRANCH  14  16
ENDBRANCH   9  12
TORSDOF 2
ENDMDL
