ROOT
HETATM    1  C2  UNL     1      25.095   1.733  53.221  1.00  0.00     0.098 C 
HETATM    2  C3  UNL     1      26.232   2.511  53.355  1.00  0.00     0.168 C 
HETATM    3  C4  UNL     1      27.609   2.011  53.705  1.00  0.00     0.019 A 
HETATM    4  N1  UNL     1      27.680   0.994  54.483  1.00  0.00    -0.339 N 
HETATM    5  C5  UNL     1      26.605   0.362  55.019  1.00  0.00     0.205 C 
HETATM    6  N2  UNL     1      25.767  -0.444  54.669  1.00  0.00    -0.271 NA
HETATM    7  C6  UNL     1      25.766  -1.020  53.259  1.00  0.00     0.167 C 
HETATM    8  C7  UNL     1      24.404  -0.836  53.140  1.00  0.00     0.040 C 
HETATM    9  C8  UNL     1      24.096   0.550  53.121  1.00  0.00     0.074 C 
HETATM   10  C10 UNL     1      26.996  -1.673  53.087  1.00  0.00    -0.029 A 
HETATM   11  C11 UNL     1      27.952  -2.600  52.869  1.00  0.00     0.009 A 
HETATM   12  C12 UNL     1      29.285  -2.270  53.005  1.00  0.00     0.001 A 
HETATM   13  C13 UNL     1      29.858  -1.064  53.352  1.00  0.00     0.009 A 
HETATM   14  C14 UNL     1      29.243   0.125  53.652  1.00  0.00    -0.036 A 
HETATM   15  C15 UNL     1      28.075  -0.712  53.383  1.00  0.00     0.018 A 
HETATM   16  C16 UNL     1      28.935   1.529  54.043  1.00  0.00     0.194 A 
ENDROOT
BRANCH   1  17
HETATM   17  O1  UNL     1      24.372   2.953  52.966  1.00  0.00    -0.383 OA
HETATM   18  C1  UNL     1      24.404   3.602  51.736  1.00  0.00     0.202 C 
ENDBRANCH   1  17
BRANCH   9  19
HETATM   19  O2  UNL     1      22.784   0.872  53.004  1.00  0.00    -0.358 OA
HETATM   20  C9  UNL     1      21.797   0.335  53.854  1.00  0.00     0.209 C 
ENDBRANCH   9  19
TORSDOF 2
ENDMDL
