ROOT
HETATM    1  C1  UNL     1      31.176   8.541  48.339  1.00  0.00     0.080 C 
HETATM    2  C2  UNL     1      29.737   8.150  48.544  1.00  0.00     0.087 C 
HETATM    3  C3  UNL     1      29.344   9.060  49.454  1.00  0.00     0.130 C 
HETATM    4  C4  UNL     1      28.001   9.138  49.986  1.00  0.00     0.118 C 
HETATM    5  C5  UNL     1      26.874   8.535  49.808  1.00  0.00     0.041 C 
HETATM    6  C6  UNL     1      25.487   8.409  50.183  1.00  0.00     0.018 C 
HETATM    7  C7  UNL     1      24.643   7.470  49.846  1.00  0.00    -0.021 C 
HETATM    8  C8  UNL     1      24.536   6.500  48.756  1.00  0.00     0.055 C 
HETATM    9  C9  UNL     1      25.728   5.650  48.507  1.00  0.00    -0.004 C 
HETATM   10  C10 UNL     1      26.985   6.028  48.458  1.00  0.00     0.006 C 
HETATM   11  C11 UNL     1      28.163   5.141  48.653  1.00  0.00     0.076 C 
HETATM   12  C12 UNL     1      29.243   5.739  48.272  1.00  0.00     0.170 C 
HETATM   13  O3  UNL     1      29.435   7.029  47.732  1.00  0.00    -0.294 OA
HETATM   14  S1  UNL     1      27.423   7.715  48.254  1.00  0.00    -0.088 SA
ENDROOT
BRANCH  12  15
HETATM   15  N1  UNL     1      30.467   5.035  48.391  1.00  0.00    -0.237 NA
HETATM   16  C13 UNL     1      31.199   4.787  47.362  1.00  0.00     0.120 C 
BRANCH  16  17
HETATM   17  C14 UNL     1      32.425   4.063  47.638  1.00  0.00     0.024 C 
HETATM   18  C15 UNL     1      33.539   4.263  46.969  1.00  0.00    -0.049 C 
HETATM   19  C16 UNL     1      33.844   5.206  45.830  1.00  0.00     0.066 C 
HETATM   20  C18 UNL     1      34.897   3.670  47.034  1.00  0.00     0.304 C 
HETATM   21  C17 UNL     1      34.643   4.381  44.846  1.00  0.00     0.274 C 
HETATM   22  N2  UNL     1      35.205   3.295  45.646  1.00  0.00     0.087 N 
HETATM   23  H18 UNL     1      34.692   2.408  45.458  1.00  0.00     0.316 HD
ENDBRANCH  16  17
ENDBRANCH  12  15
BRANCH   3  24
HETATM   24  O1  UNL     1      30.109  10.038  50.003  1.00  0.00    -0.356 OA
HETATM   25  H4  UNL     1      29.742  10.766  50.592  1.00  0.00     0.218 HD
ENDBRANCH   3  24
BRANCH   4  26
HETATM   26  O2  UNL     1      27.469   9.974  50.946  1.00  0.00    -0.357 OA
HETATM   27  H5  UNL     1      27.182  10.928  50.766  1.00  0.00     0.218 HD
ENDBRANCH   4  26
TORSDOF 4
ENDMDL
