ROOT
HETATM    1  C5  UNL     1      26.735   2.463  52.111  1.00  0.00     0.068 C 
HETATM    2  C6  UNL     1      26.496   2.742  50.825  1.00  0.00     0.036 C 
HETATM    3  C7  UNL     1      25.192   2.876  50.174  1.00  0.00    -0.001 C 
HETATM    4  C8  UNL     1      24.020   3.038  50.767  1.00  0.00    -0.018 C 
HETATM    5  C9  UNL     1      23.558   3.143  52.172  1.00  0.00     0.032 C 
HETATM    6  C17 UNL     1      24.436   2.520  53.143  1.00  0.00    -0.015 C 
HETATM    7  C18 UNL     1      25.734   2.231  53.144  1.00  0.00     0.033 C 
ENDROOT
BRANCH   5   8
HETATM    8  C10 UNL     1      22.149   2.620  52.184  1.00  0.00     0.029 C 
BRANCH   8   9
HETATM    9  C11 UNL     1      21.817   1.661  51.098  1.00  0.00     0.121 C 
BRANCH   9  10
HETATM   10  N1  UNL     1      21.301   0.453  51.731  1.00  0.00    -0.197 NA
HETATM   11  C12 UNL     1      22.177  -0.206  52.498  1.00  0.00     0.120 C 
HETATM   12  C13 UNL     1      23.022  -0.882  53.370  1.00  0.00     0.017 C 
HETATM   13  C14 UNL     1      22.251  -0.977  54.727  1.00  0.00     0.003 C 
HETATM   14  C15 UNL     1      21.081   0.024  54.708  1.00  0.00     0.028 C 
HETATM   15  C16 UNL     1      20.098   0.033  53.656  1.00  0.00     0.194 C 
HETATM   16  O2  UNL     1      20.176   0.773  52.488  1.00  0.00    -0.303 OA
ENDBRANCH   9  10
ENDBRANCH   8   9
ENDBRANCH   5   8
BRANCH   1  17
HETATM   17  O1  UNL     1      28.094   2.410  52.394  1.00  0.00    -0.351 OA
BRANCH  17  18
HETATM   18  C4  UNL     1      28.489   1.918  53.657  1.00  0.00     0.179 C 
BRANCH  18  19
HETATM   19  C3  UNL     1      29.158   0.553  53.482  1.00  0.00     0.053 C 
BRANCH  19  20
HETATM   20  C2  UNL     1      28.168  -0.553  53.533  1.00  0.00    -0.035 C 
HETATM   21  C1  UNL     1      27.249  -1.214  52.861  1.00  0.00     0.007 C 
ENDBRANCH  19  20
ENDBRANCH  18  19
ENDBRANCH  17  18
ENDBRANCH   1  17
TORSDOF 7
ENDMDL
