ROOT
HETATM    1  C5  UNL     1      20.173  -0.769  53.666  1.00  0.00     0.015 A 
HETATM    2  C6  UNL     1      20.935  -1.405  54.544  1.00  0.00     0.026 A 
HETATM    3  C7  UNL     1      22.381  -1.229  54.490  1.00  0.00     0.011 A 
HETATM    4  C8  UNL     1      22.985  -0.455  53.596  1.00  0.00    -0.026 A 
HETATM    5  C9  UNL     1      24.449  -0.319  53.594  1.00  0.00     0.097 A 
HETATM    6  C10 UNL     1      24.829   0.602  52.490  1.00  0.00     0.043 A 
HETATM    7  N3  UNL     1      24.016   1.171  51.692  1.00  0.00    -0.158 NA
HETATM    8  N4  UNL     1      22.629   1.012  51.731  1.00  0.00    -0.154 NA
HETATM    9  C17 UNL     1      22.116   0.230  52.645  1.00  0.00     0.069 A 
HETATM   10  C18 UNL     1      20.637   0.141  52.587  1.00  0.00     0.118 A 
ENDROOT
BRANCH   1  11
HETATM   11  N1  UNL     1      18.746  -0.863  53.621  1.00  0.00    -0.359 N 
HETATM   12  H3  UNL     1      18.081  -0.074  53.780  1.00  0.00     0.166 HD
BRANCH  11  13
HETATM   13  C4  UNL     1      17.783  -1.888  53.383  1.00  0.00     0.032 A 
HETATM   14  C3  UNL     1      16.705  -1.461  52.622  1.00  0.00     0.031 A 
HETATM   15  C2  UNL     1      15.642  -2.288  52.264  1.00  0.00     0.026 A 
HETATM   16  C1  UNL     1      15.711  -3.596  52.715  1.00  0.00     0.034 A 
HETATM   17 CL1  UNL     1      14.420  -4.702  52.312  1.00  0.00    -0.084 Cl
HETATM   18  C20 UNL     1      16.772  -4.034  53.469  1.00  0.00     0.026 A 
HETATM   19  C19 UNL     1      17.816  -3.197  53.814  1.00  0.00     0.031 A 
ENDBRANCH  11  13
ENDBRANCH   1  11
BRANCH   6  20
HETATM   20  C11 UNL     1      26.263   0.876  52.313  1.00  0.00     0.095 C 
BRANCH  20  21
HETATM   21  C12 UNL     1      27.154  -0.243  52.662  1.00  0.00    -0.050 A 
HETATM   22  C13 UNL     1      28.320   0.015  53.345  1.00  0.00     0.026 A 
HETATM   23  C14 UNL     1      29.189  -0.984  53.696  1.00  0.00     0.116 A 
HETATM   24  N2  UNL     1      28.941  -2.284  53.387  1.00  0.00    -0.273 NA
HETATM   25  C15 UNL     1      27.807  -2.570  52.718  1.00  0.00     0.116 A 
HETATM   26  C16 UNL     1      26.920  -1.587  52.354  1.00  0.00     0.026 A 
ENDBRANCH  20  21
ENDBRANCH   6  20
TORSDOF 4
ENDMDL
