ROOT
HETATM    1  C2  UNL     1      26.078   3.657  50.475  1.00  0.00     0.011 C 
HETATM    2  C3  UNL     1      26.354   2.464  50.950  1.00  0.00     0.004 C 
HETATM    3  C4  UNL     1      25.396   2.219  52.023  1.00  0.00     0.086 A 
HETATM    4  C5  UNL     1      25.237   0.830  52.484  1.00  0.00     0.125 A 
HETATM    5  N2  UNL     1      24.124   0.263  52.736  1.00  0.00    -0.183 NA
HETATM    6  N3  UNL     1      22.884   0.896  52.597  1.00  0.00    -0.245 N 
HETATM    7  C12 UNL     1      22.906   2.243  52.144  1.00  0.00     0.127 A 
HETATM    8  C13 UNL     1      24.081   2.847  51.876  1.00  0.00    -0.025 A 
HETATM    9  C14 UNL     1      23.941   4.166  51.326  1.00  0.00     0.047 C 
HETATM   10  C15 UNL     1      24.978   4.602  50.576  1.00  0.00     0.080 C 
ENDROOT
BRANCH  10  11
HETATM   11  O1  UNL     1      24.932   5.852  49.984  1.00  0.00    -0.350 OA
BRANCH  11  12
HETATM   12  C16 UNL     1      24.236   6.967  50.434  1.00  0.00     0.178 C 
BRANCH  12  13
HETATM   13  C17 UNL     1      24.777   8.184  49.694  1.00  0.00     0.067 C 
BRANCH  13  14
HETATM   14  C18 UNL     1      26.287   8.172  49.912  1.00  0.00     0.277 C 
HETATM   15  N4  UNL     1      26.940   7.755  48.693  1.00  0.00     0.095 N 
HETATM   16  C19 UNL     1      28.212   8.444  48.591  1.00  0.00     0.296 C 
HETATM   17  H17 UNL     1      26.340   7.903  47.849  1.00  0.00     0.316 HD
HETATM   18  C20 UNL     1      27.875   9.909  48.361  1.00  0.00     0.201 C 
HETATM   19  O2  UNL     1      26.972  10.409  49.284  1.00  0.00    -0.358 OA
HETATM   20  C21 UNL     1      26.700   9.558  50.340  1.00  0.00     0.289 C 
BRANCH  20  21
HETATM   21  O3  UNL     1      27.763   9.539  51.257  1.00  0.00    -0.369 OA
HETATM   22  H23 UNL     1      28.342   8.790  51.000  1.00  0.00     0.212 HD
ENDBRANCH  20  21
ENDBRANCH  13  14
ENDBRANCH  12  13
ENDBRANCH  11  12
ENDBRANCH  10  11
BRANCH   1  23
HETATM   23  C1  UNL     1      26.995   4.068  49.382  1.00  0.00     0.121 C 
HETATM   24  N1  UNL     1      27.967   4.850  49.068  1.00  0.00    -0.311 NA
HETATM   25  H1  UNL     1      28.325   5.494  49.821  1.00  0.00     0.186 HD
ENDBRANCH   1  23
BRANCH   6  26
HETATM   26  C6  UNL     1      21.710   0.168  52.912  1.00  0.00     0.058 A 
HETATM   27  C7  UNL     1      20.557   0.453  52.216  1.00  0.00     0.033 A 
HETATM   28  C8  UNL     1      19.363  -0.197  52.445  1.00  0.00     0.026 A 
HETATM   29  C9  UNL     1      19.322  -1.178  53.417  1.00  0.00     0.034 A 
HETATM   30 CL1  UNL     1      17.818  -2.010  53.721  1.00  0.00    -0.084 Cl
HETATM   31  C10 UNL     1      20.457  -1.483  54.128  1.00  0.00     0.026 A 
HETATM   32  C11 UNL     1      21.630  -0.805  53.862  1.00  0.00     0.033 A 
ENDBRANCH   6  26
TORSDOF 7
ENDMDL
