ROOT
HETATM    1  C7  UNL     1      25.120   4.008  50.556  1.00  0.00     0.036 A 
HETATM    2  C8  UNL     1      23.795   3.983  50.169  1.00  0.00     0.032 A 
HETATM    3  C9  UNL     1      22.959   2.947  50.602  1.00  0.00     0.035 A 
HETATM    4  C10 UNL     1      23.454   1.948  51.415  1.00  0.00     0.070 A 
HETATM    5  N3  UNL     1      22.697   0.936  51.870  1.00  0.00    -0.241 NA
HETATM    6  C11 UNL     1      23.299   0.013  52.678  1.00  0.00     0.234 A 
HETATM    7  N4  UNL     1      24.593   0.057  53.041  1.00  0.00    -0.240 NA
HETATM    8  C12 UNL     1      25.388   1.074  52.593  1.00  0.00     0.081 A 
HETATM    9  C19 UNL     1      24.780   1.998  51.784  1.00  0.00     0.025 A 
HETATM   10  C20 UNL     1      25.612   3.011  51.366  1.00  0.00     0.045 A 
ENDROOT
BRANCH   1  11
HETATM   11  N2  UNL     1      25.810   5.131  50.026  1.00  0.00    -0.316 N 
HETATM   12  C6  UNL     1      26.904   4.647  49.255  1.00  0.00     0.301 C 
HETATM   13  O1  UNL     1      27.103   3.407  49.148  1.00  0.00    -0.258 OA
HETATM   14  H9  UNL     1      25.692   6.175  50.079  1.00  0.00     0.170 HD
BRANCH  12  15
HETATM   15  C5  UNL     1      27.848   5.497  48.555  1.00  0.00    -0.004 C 
HETATM   16  C4  UNL     1      28.641   6.193  47.973  1.00  0.00    -0.066 C 
BRANCH  16  17
HETATM   17  C3  UNL     1      29.631   7.032  47.263  1.00  0.00     0.365 C 
BRANCH  17  18
HETATM   18  N1  UNL     1      30.434   7.819  48.156  1.00  0.00     0.090 N 
HETATM   19  C1  UNL     1      31.391   7.084  48.925  1.00  0.00     0.310 C 
HETATM   20  C2  UNL     1      29.653   8.747  48.920  1.00  0.00     0.310 C 
ENDBRANCH  17  18
ENDBRANCH  16  17
ENDBRANCH  12  15
ENDBRANCH   1  11
BRANCH   8  21
HETATM   21  C13 UNL     1      26.757   0.991  53.068  1.00  0.00    -0.005 A 
HETATM   22  C14 UNL     1      27.581   1.960  53.594  1.00  0.00     0.014 A 
HETATM   23  C15 UNL     1      28.862   1.681  54.018  1.00  0.00     0.002 A 
HETATM   24  C16 UNL     1      29.372   0.413  53.930  1.00  0.00     0.019 A 
HETATM   25  C17 UNL     1      28.618  -0.620  53.417  1.00  0.00     0.011 A 
HETATM   26 BR1  UNL     1      29.277  -2.399  53.271  1.00  0.00    -0.051 Br
HETATM   27  C18 UNL     1      27.329  -0.285  53.003  1.00  0.00     0.032 A 
ENDBRANCH   8  21
TORSDOF 5
ENDMDL
