ROOT
HETATM    1  C7  UNL     1      24.841   2.575  52.184  1.00  0.00     0.127 C 
HETATM    2  C8  UNL     1      23.382   2.459  52.536  1.00  0.00     0.090 C 
HETATM    3  C9  UNL     1      23.320   1.032  52.979  1.00  0.00     0.067 C 
HETATM    4  N1  UNL     1      24.503   0.578  53.135  1.00  0.00    -0.174 NA
HETATM    5  N2  UNL     1      25.494   1.510  52.857  1.00  0.00    -0.240 N 
ENDROOT
BRANCH   3   6
HETATM    6  C10 UNL     1      22.086   0.282  53.195  1.00  0.00    -0.010 A 
HETATM    7  C11 UNL     1      20.912   0.669  52.547  1.00  0.00     0.015 A 
HETATM    8  C12 UNL     1      19.724  -0.007  52.718  1.00  0.00     0.024 A 
HETATM    9  C13 UNL     1      19.757  -1.076  53.558  1.00  0.00     0.034 A 
HETATM   10 CL1  UNL     1      18.246  -1.951  53.786  1.00  0.00    -0.084 Cl
HETATM   11  C14 UNL     1      20.874  -1.493  54.213  1.00  0.00     0.024 A 
HETATM   12  C15 UNL     1      22.070  -0.808  54.038  1.00  0.00     0.015 A 
ENDBRANCH   3   6
BRANCH   1  13
HETATM   13  C6  UNL     1      25.115   2.798  50.750  1.00  0.00     0.045 A 
HETATM   14  C2  UNL     1      25.337   4.088  50.139  1.00  0.00    -0.021 A 
HETATM   15  C1  UNL     1      26.668   4.218  49.397  1.00  0.00     0.020 C 
HETATM   16  C3  UNL     1      24.925   5.373  50.821  1.00  0.00     0.020 C 
HETATM   17  C4  UNL     1      24.271   3.723  49.197  1.00  0.00    -0.021 A 
HETATM   18  C5  UNL     1      24.081   2.573  49.750  1.00  0.00    -0.022 A 
ENDBRANCH   1  13
BRANCH   5  19
HETATM   19  C16 UNL     1      26.835   1.225  53.285  1.00  0.00     0.192 A 
HETATM   20  N3  UNL     1      27.722   2.122  53.888  1.00  0.00    -0.198 NA
HETATM   21  C17 UNL     1      28.881   1.517  54.130  1.00  0.00     0.171 A 
HETATM   22  C18 UNL     1      29.313   0.192  53.882  1.00  0.00     0.111 A 
HETATM   23  S1  UNL     1      27.660  -0.341  53.109  1.00  0.00    -0.058 SA
BRANCH  21  24
HETATM   24  O1  UNL     1      29.722   2.478  54.736  1.00  0.00    -0.344 OA
HETATM   25  H17 UNL     1      30.719   2.299  54.791  1.00  0.00     0.219 HD
ENDBRANCH  21  24
ENDBRANCH   5  19
TORSDOF 4
ENDMDL
