ROOT
HETATM    1  C6  UNL     1      22.219   0.576  53.108  1.00  0.00    -0.017 C 
ENDROOT
BRANCH   1   2
HETATM    2  C5  UNL     1      23.305   1.478  52.736  1.00  0.00    -0.005 C 
HETATM    3  C4  UNL     1      24.578   1.339  52.592  1.00  0.00     0.004 C 
BRANCH   3   4
HETATM    4  C3  UNL     1      25.130  -0.024  52.844  1.00  0.00     0.148 C 
HETATM    5  O3  UNL     1      26.245  -0.225  52.046  1.00  0.00    -0.364 OA
HETATM    6  C2  UNL     1      27.363  -0.434  52.816  1.00  0.00     0.250 C 
HETATM    7  C22 UNL     1      27.052   0.221  54.161  1.00  0.00     0.159 C 
HETATM    8  C21 UNL     1      25.584  -0.241  54.259  1.00  0.00     0.071 C 
BRANCH   6   9
HETATM    9  C1  UNL     1      27.507  -1.899  52.976  1.00  0.00     0.288 C 
HETATM   10  O1  UNL     1      28.730  -1.504  52.910  1.00  0.00    -0.262 OA
BRANCH   9  11
HETATM   11  O2  UNL     1      28.288  -3.020  53.094  1.00  0.00    -0.330 OA
HETATM   12  H1  UNL     1      29.232  -3.100  52.709  1.00  0.00     0.220 HD
ENDBRANCH   9  11
ENDBRANCH   6   9
BRANCH   7  13
HETATM   13  O4  UNL     1      27.760  -0.393  55.169  1.00  0.00    -0.392 OA
HETATM   14  H26 UNL     1      28.729  -0.505  54.865  1.00  0.00     0.210 HD
ENDBRANCH   7  13
ENDBRANCH   3   4
ENDBRANCH   1   2
BRANCH   1  15
HETATM   15  C7  UNL     1      21.086   0.654  52.529  1.00  0.00     0.041 C 
BRANCH  15  16
HETATM   16  C8  UNL     1      19.910   1.036  51.812  1.00  0.00    -0.021 C 
HETATM   17  C9  UNL     1      19.886   0.993  50.483  1.00  0.00    -0.026 C 
BRANCH  17  18
HETATM   18  C10 UNL     1      21.100   0.530  49.790  1.00  0.00     0.053 C 
BRANCH  18  19
HETATM   19  C11 UNL     1      21.759   1.506  48.936  1.00  0.00    -0.027 C 
BRANCH  19  20
HETATM   20  C12 UNL     1      22.681   2.470  48.856  1.00  0.00    -0.024 C 
BRANCH  20  21
HETATM   21  C13 UNL     1      23.759   3.419  48.653  1.00  0.00     0.053 C 
HETATM   22  C14 UNL     1      24.768   3.369  49.595  1.00  0.00     0.013 C 
BRANCH  22  23
HETATM   23  C15 UNL     1      25.723   4.421  49.186  1.00  0.00    -0.061 A 
HETATM   24  C16 UNL     1      25.348   5.666  48.941  1.00  0.00    -0.019 A 
HETATM   25  C17 UNL     1      26.034   6.927  48.519  1.00  0.00     0.031 A 
HETATM   26  C18 UNL     1      27.506   6.719  48.327  1.00  0.00     0.031 A 
HETATM   27  C19 UNL     1      27.903   5.328  48.609  1.00  0.00    -0.026 A 
HETATM   28  C20 UNL     1      27.175   4.297  48.982  1.00  0.00     0.003 A 
ENDBRANCH  22  23
ENDBRANCH  20  21
ENDBRANCH  19  20
ENDBRANCH  18  19
ENDBRANCH  17  18
ENDBRANCH  15  16
ENDBRANCH   1  15
TORSDOF 12
ENDMDL
