ROOT
HETATM    1  C4  UNL     1      27.155   1.469  53.831  1.00  0.00     0.141 C 
HETATM    2  C5  UNL     1      25.750   0.986  54.553  1.00  0.00     0.040 C 
HETATM    3  C6  UNL     1      25.961   0.143  53.485  1.00  0.00     0.035 A 
HETATM    4  C7  UNL     1      26.461  -0.342  52.119  1.00  0.00     0.025 A 
HETATM    5  C8  UNL     1      26.584   0.850  52.606  1.00  0.00     0.024 A 
HETATM    6  C9  UNL     1      25.659   1.870  51.764  1.00  0.00    -0.004 C 
HETATM    7  C10 UNL     1      24.267   1.637  51.476  1.00  0.00    -0.035 C 
HETATM    8  C13 UNL     1      23.508   0.609  52.340  1.00  0.00     0.019 A 
HETATM    9  C14 UNL     1      24.316  -0.148  53.450  1.00  0.00     0.076 A 
HETATM   10  O4  UNL     1      23.368  -0.848  54.079  1.00  0.00    -0.308 OA
HETATM   11  C15 UNL     1      22.234  -0.583  53.483  1.00  0.00     0.141 A 
HETATM   12  C16 UNL     1      22.226   0.295  52.410  1.00  0.00     0.066 A 
HETATM   13  C17 UNL     1      21.156   0.739  51.611  1.00  0.00     0.197 A 
HETATM   14  O5  UNL     1      21.264   1.529  50.672  1.00  0.00    -0.286 OA
HETATM   15  C18 UNL     1      19.861   0.175  51.986  1.00  0.00     0.029 A 
HETATM   16  C19 UNL     1      18.723   0.531  51.279  1.00  0.00     0.016 A 
HETATM   17  C20 UNL     1      17.496   0.006  51.624  1.00  0.00     0.001 A 
HETATM   18  C21 UNL     1      17.477  -0.870  52.689  1.00  0.00     0.001 A 
HETATM   19  C22 UNL     1      18.576  -1.258  53.426  1.00  0.00     0.016 A 
HETATM   20  C23 UNL     1      19.793  -0.723  53.064  1.00  0.00     0.031 A 
HETATM   21  C24 UNL     1      20.960  -1.154  53.872  1.00  0.00     0.217 A 
HETATM   22  O6  UNL     1      20.872  -1.945  54.815  1.00  0.00    -0.284 OA
ENDROOT
BRANCH   1  23
HETATM   23  O1  UNL     1      28.167   0.886  54.408  1.00  0.00    -0.384 OA
BRANCH  23  24
HETATM   24  C3  UNL     1      29.458   1.218  54.205  1.00  0.00     0.168 C 
BRANCH  24  25
HETATM   25  C2  UNL     1      30.138   0.112  53.419  1.00  0.00     0.022 C 
HETATM   26  C1  UNL     1      29.534  -1.228  53.772  1.00  0.00     0.007 C 
ENDBRANCH  24  25
ENDBRANCH  23  24
ENDBRANCH   1  23
BRANCH   7  27
HETATM   27  C11 UNL     1      23.489   2.247  50.524  1.00  0.00     0.030 A 
HETATM   28  O2  UNL     1      23.973   3.220  49.898  1.00  0.00     0.000 OA
HETATM   29  C12 UNL     1      23.275   4.012  48.825  1.00  0.00     0.000 A 
HETATM   30  O3  UNL     1      24.021   3.317  49.835  1.00  0.00     0.000 OA
ENDBRANCH   7  27
TORSDOF 4
ENDMDL
