ROOT
HETATM    1  C10 UNL     1      26.688   2.228  50.931  1.00  0.00     0.015 A 
HETATM    2  C11 UNL     1      26.287   1.005  51.349  1.00  0.00     0.038 A 
HETATM    3  C12 UNL     1      26.534   0.675  52.799  1.00  0.00     0.128 A 
HETATM    4  C13 UNL     1      27.583  -0.415  52.893  1.00  0.00     0.054 C 
HETATM    5  C24 UNL     1      27.158   1.938  53.247  1.00  0.00     0.254 A 
HETATM    6  O1  UNL     1      27.549   2.192  54.405  1.00  0.00    -0.270 OA
HETATM    7  N4  UNL     1      27.222   2.787  52.114  1.00  0.00    -0.328 N 
HETATM    8  H29 UNL     1      27.630   3.738  52.175  1.00  0.00     0.168 HD
ENDROOT
BRANCH   3   9
HETATM    9  N1  UNL     1      25.350   0.339  53.517  1.00  0.00    -0.369 N 
HETATM   10  H14 UNL     1      25.512  -0.167  54.417  1.00  0.00     0.161 HD
BRANCH   9  11
HETATM   11  C14 UNL     1      23.992   0.583  53.204  1.00  0.00     0.029 A 
HETATM   12  C15 UNL     1      23.031  -0.430  53.188  1.00  0.00     0.031 A 
HETATM   13  C16 UNL     1      21.733  -0.102  52.859  1.00  0.00     0.031 A 
HETATM   14  C17 UNL     1      21.320   1.169  52.544  1.00  0.00     0.031 A 
HETATM   15  C22 UNL     1      22.269   2.138  52.565  1.00  0.00     0.031 A 
HETATM   16  C23 UNL     1      23.574   1.858  52.886  1.00  0.00     0.031 A 
BRANCH  14  17
HETATM   17  N2  UNL     1      19.954   1.427  52.218  1.00  0.00    -0.368 N 
HETATM   18  C18 UNL     1      18.921   0.449  52.114  1.00  0.00     0.130 C 
HETATM   19  C19 UNL     1      18.327   0.380  50.706  1.00  0.00     0.070 C 
HETATM   20  P1  UNL     1      17.458   2.041  50.518  1.00  0.00    -0.047 P 
HETATM   21  C20 UNL     1      17.703   2.758  48.841  1.00  0.00     0.061 C 
HETATM   22  N3  UNL     1      18.201   3.061  51.819  1.00  0.00    -0.283 NA
HETATM   23  C21 UNL     1      19.609   2.810  51.972  1.00  0.00     0.217 C 
HETATM   24  H24 UNL     1      17.720   2.838  52.704  1.00  0.00     0.128 HD
ENDBRANCH  14  17
ENDBRANCH   9  11
ENDBRANCH   3   9
BRANCH   1  25
HETATM   25  C9  UNL     1      26.514   2.697  49.537  1.00  0.00     0.096 C 
BRANCH  25  26
HETATM   26  C8  UNL     1      25.825   4.001  49.476  1.00  0.00    -0.043 A 
HETATM   27  C3  UNL     1      26.336   5.207  49.065  1.00  0.00    -0.033 A 
HETATM   28  C4  UNL     1      25.674   6.413  49.060  1.00  0.00     0.011 A 
HETATM   29  C5  UNL     1      24.375   6.385  49.516  1.00  0.00     0.001 A 
HETATM   30  C6  UNL     1      23.828   5.193  49.936  1.00  0.00     0.001 A 
HETATM   31  C7  UNL     1      24.519   3.979  49.933  1.00  0.00     0.008 A 
BRANCH  27  32
HETATM   32  C2  UNL     1      27.674   5.220  48.546  1.00  0.00    -0.015 C 
HETATM   33  C1  UNL     1      28.865   5.632  48.283  1.00  0.00     0.032 C 
ENDBRANCH  27  32
ENDBRANCH  25  26
ENDBRANCH   1  25
TORSDOF 6
ENDMDL
