ROOT
HETATM    1  C6  UNL     1      24.846   2.062  51.166  1.00  0.00     0.106 A 
HETATM    2  C7  UNL     1      23.868   2.768  50.528  1.00  0.00     0.072 A 
HETATM    3  C8  UNL     1      24.083   3.896  49.795  1.00  0.00     0.073 A 
HETATM    4  N2  UNL     1      23.056   4.511  49.205  1.00  0.00    -0.241 NA
HETATM    5  C9  UNL     1      23.207   5.631  48.461  1.00  0.00     0.234 A 
HETATM    6  N3  UNL     1      24.466   6.086  48.356  1.00  0.00    -0.240 NA
HETATM    7  C10 UNL     1      25.524   5.510  48.925  1.00  0.00     0.084 A 
HETATM    8  C17 UNL     1      25.370   4.370  49.682  1.00  0.00     0.025 A 
HETATM    9  C18 UNL     1      26.417   3.735  50.282  1.00  0.00     0.057 A 
HETATM   10  C19 UNL     1      26.140   2.579  51.024  1.00  0.00     0.126 A 
ENDROOT
BRANCH   1  11
HETATM   11  O1  UNL     1      24.876   0.946  51.935  1.00  0.00    -0.348 OA
BRANCH  11  12
HETATM   12  C5  UNL     1      24.710   0.728  53.276  1.00  0.00     0.180 C 
BRANCH  12  13
HETATM   13  C4  UNL     1      25.402  -0.493  53.848  1.00  0.00     0.013 C 
HETATM   14  C3  UNL     1      26.165  -0.138  55.115  1.00  0.00     0.037 C 
HETATM   15  C2  UNL     1      27.483   0.466  54.689  1.00  0.00     0.272 C 
HETATM   16  N1  UNL     1      28.230  -0.657  54.105  1.00  0.00     0.084 N 
HETATM   17  C1  UNL     1      29.625  -0.321  53.884  1.00  0.00     0.309 C 
HETATM   18  C21 UNL     1      27.667  -1.014  52.829  1.00  0.00     0.272 C 
HETATM   19  C20 UNL     1      26.204  -1.213  52.827  1.00  0.00     0.037 C 
ENDBRANCH  12  13
ENDBRANCH  11  12
ENDBRANCH   1  11
BRANCH  10  20
HETATM   20  O2  UNL     1      27.310   2.030  51.587  1.00  0.00    -0.264 OA
BRANCH  20  21
HETATM   21  N4  UNL     1      28.063   2.867  52.370  1.00  0.00    -0.209 NA
HETATM   22  H17 UNL     1      27.424   3.309  53.062  1.00  0.00     0.150 HD
HETATM   23  H18 UNL     1      28.494   3.623  51.793  1.00  0.00     0.150 HD
ENDBRANCH  20  21
ENDBRANCH  10  20
BRANCH   7  24
HETATM   24  C11 UNL     1      26.832   6.118  48.726  1.00  0.00     0.032 A 
HETATM   25  C12 UNL     1      27.936   5.401  48.292  1.00  0.00     0.018 A 
HETATM   26  C13 UNL     1      29.199   5.908  48.097  1.00  0.00     0.020 A 
HETATM   27  C14 UNL     1      29.403   7.247  48.349  1.00  0.00     0.013 A 
HETATM   28 BR1  UNL     1      31.135   7.986  48.090  1.00  0.00    -0.051 Br
HETATM   29  C15 UNL     1      28.322   7.987  48.782  1.00  0.00     0.062 A 
HETATM   30  C16 UNL     1      27.070   7.463  48.971  1.00  0.00     0.130 A 
HETATM   31  F1  UNL     1      26.053   8.266  49.403  1.00  0.00    -0.205 F 
ENDBRANCH   7  24
TORSDOF 6
ENDMDL
