ROOT
HETATM    1  C11 UNL     1      25.977   5.036  49.367  1.00  0.00     0.019 C 
HETATM    2  C12 UNL     1      26.707   4.024  49.775  1.00  0.00     0.092 C 
ENDROOT
BRANCH   1   3
HETATM    3  C10 UNL     1      26.341   6.179  48.545  1.00  0.00     0.034 C 
BRANCH   3   4
HETATM    4  C9  UNL     1      27.139   7.169  48.864  1.00  0.00     0.071 A 
HETATM    5  C2  UNL     1      28.430   7.435  48.445  1.00  0.00     0.029 A 
HETATM    6  C1  UNL     1      28.898   6.561  47.600  1.00  0.00     0.030 C 
HETATM    7  C3  UNL     1      29.125   8.535  48.876  1.00  0.00     0.142 A 
HETATM    8  N2  UNL     1      28.511   9.364  49.732  1.00  0.00    -0.223 NA
HETATM    9  C8  UNL     1      27.258   9.115  50.148  1.00  0.00     0.236 A 
HETATM   10  N3  UNL     1      26.571   8.041  49.730  1.00  0.00    -0.241 NA
BRANCH   7  11
HETATM   11  N1  UNL     1      30.455   8.770  48.441  1.00  0.00    -0.346 N 
HETATM   12  C4  UNL     1      30.687   9.604  47.281  1.00  0.00     0.157 C 
BRANCH  11  13
HETATM   13  C5  UNL     1      31.664   8.262  49.047  1.00  0.00     0.090 C 
HETATM   14  C6  UNL     1      32.558   7.868  48.125  1.00  0.00     0.021 C 
BRANCH  14  15
HETATM   15  C7  UNL     1      33.933   7.282  48.250  1.00  0.00     0.251 C 
HETATM   16  F1  UNL     1      34.769   8.203  48.868  1.00  0.00    -0.251 F 
ENDBRANCH  14  15
ENDBRANCH  11  13
ENDBRANCH   7  11
ENDBRANCH   3   4
ENDBRANCH   1   3
BRANCH   2  17
HETATM   17  N4  UNL     1      26.148   2.986  50.590  1.00  0.00    -0.326 N 
HETATM   18  C13 UNL     1      26.739   2.308  51.691  1.00  0.00     0.300 C 
HETATM   19  O1  UNL     1      27.896   2.556  52.093  1.00  0.00    -0.258 OA
HETATM   20  H14 UNL     1      25.188   2.714  50.319  1.00  0.00     0.169 HD
BRANCH  18  21
HETATM   21  C14 UNL     1      26.033   1.293  52.413  1.00  0.00    -0.005 C 
HETATM   22  C15 UNL     1      25.417   0.437  53.039  1.00  0.00    -0.095 C 
BRANCH  22  23
HETATM   23  C16 UNL     1      24.652  -0.580  53.805  1.00  0.00     0.114 C 
BRANCH  23  24
HETATM   24  C17 UNL     1      23.281  -0.642  53.244  1.00  0.00     0.129 C 
BRANCH  24  25
HETATM   25  N5  UNL     1      22.344   0.321  53.682  1.00  0.00    -0.412 N 
BRANCH  25  26
HETATM   26  C18 UNL     1      21.901   1.299  52.764  1.00  0.00     0.112 C 
HETATM   27  C19 UNL     1      22.180   1.058  51.323  1.00  0.00     0.026 C 
ENDBRANCH  25  26
BRANCH  25  28
HETATM   28  C20 UNL     1      21.376  -0.142  54.629  1.00  0.00     0.112 C 
HETATM   29  C21 UNL     1      21.096  -1.603  54.344  1.00  0.00     0.026 C 
ENDBRANCH  25  28
ENDBRANCH  24  25
ENDBRANCH  23  24
ENDBRANCH  22  23
ENDBRANCH  18  21
ENDBRANCH   2  17
TORSDOF 12
ENDMDL
