ROOT
HETATM    1  O2  UNL     1      22.684   0.078  54.035  1.00  0.00    -0.385 OA
ENDROOT
BRANCH   1   2
HETATM    2  C6  UNL     1      23.403  -0.234  52.907  1.00  0.00     0.206 C 
BRANCH   2   3
HETATM    3  C5  UNL     1      24.835  -0.008  53.158  1.00  0.00    -0.032 A 
HETATM    4  C4  UNL     1      25.834  -0.966  53.047  1.00  0.00     0.042 A 
HETATM    5  C3  UNL     1      27.150  -0.651  53.305  1.00  0.00     0.072 A 
HETATM    6  N3  UNL     1      28.133  -1.568  53.203  1.00  0.00    -0.241 NA
HETATM    7  C18 UNL     1      27.554   0.613  53.682  1.00  0.00     0.043 A 
HETATM    8  C2  UNL     1      29.427  -1.251  53.460  1.00  0.00     0.236 A 
HETATM    9  N2  UNL     1      29.798   0.009  53.832  1.00  0.00    -0.220 NA
HETATM   10  C1  UNL     1      28.851   0.985  53.953  1.00  0.00     0.193 A 
HETATM   11  C17 UNL     1      26.543   1.572  53.791  1.00  0.00     0.018 A 
HETATM   12  C16 UNL     1      25.215   1.264  53.533  1.00  0.00     0.010 A 
BRANCH  10  13
HETATM   13  N1  UNL     1      29.195   2.318  54.339  1.00  0.00    -0.077 NA
HETATM   14  O1  UNL     1      29.976   2.581  55.253  1.00  0.00    -0.059 OA
ENDBRANCH  10  13
ENDBRANCH   2   3
ENDBRANCH   1   2
BRANCH   1  15
HETATM   15  C7  UNL     1      22.299  -1.030  54.790  1.00  0.00     0.198 C 
BRANCH  15  16
HETATM   16  C8  UNL     1      20.878  -1.415  54.408  1.00  0.00     0.295 C 
BRANCH  16  17
HETATM   17  N4  UNL     1      20.189  -0.252  53.964  1.00  0.00     0.085 N 
HETATM   18  H9  UNL     1      19.906   0.390  54.708  1.00  0.00     0.315 HD
BRANCH  17  19
HETATM   19  C9  UNL     1      19.142  -0.545  53.011  1.00  0.00     0.271 C 
BRANCH  19  20
HETATM   20  C10 UNL     1      19.683  -0.015  51.667  1.00  0.00     0.060 C 
BRANCH  20  21
HETATM   21  C11 UNL     1      18.977   1.290  51.446  1.00  0.00     0.274 C 
BRANCH  21  22
HETATM   22  N5  UNL     1      19.824   2.379  51.044  1.00  0.00     0.092 N 
HETATM   23  C12 UNL     1      20.985   1.946  50.359  1.00  0.00     0.298 C 
HETATM   24  C13 UNL     1      22.293   2.458  50.828  1.00  0.00     0.198 C 
HETATM   25  O3  UNL     1      22.292   2.912  52.140  1.00  0.00    -0.388 OA
HETATM   26  C14 UNL     1      21.331   3.915  52.267  1.00  0.00     0.198 C 
HETATM   27  C15 UNL     1      19.988   3.279  52.130  1.00  0.00     0.298 C 
ENDBRANCH  21  22
ENDBRANCH  20  21
ENDBRANCH  19  20
ENDBRANCH  17  19
ENDBRANCH  16  17
ENDBRANCH  15  16
ENDBRANCH   1  15
TORSDOF 10
ENDMDL
