ROOT
HETATM    1  C1  UNL     1      21.135   0.224  50.593  1.00  0.00    -0.003 C 
HETATM    2  C2  UNL     1      22.030   0.348  51.620  1.00  0.00     0.094 A 
HETATM    3  C3  UNL     1      21.677   0.669  53.077  1.00  0.00     0.007 A 
HETATM    4  C4  UNL     1      22.956   0.181  52.949  1.00  0.00     0.159 A 
HETATM    5  N1  UNL     1      22.647  -0.761  53.885  1.00  0.00    -0.246 NA
HETATM    6  C5  UNL     1      21.385  -0.786  54.439  1.00  0.00     0.230 A 
HETATM    7  N2  UNL     1      20.353   0.050  54.164  1.00  0.00    -0.244 NA
HETATM    8  C6  UNL     1      20.429   1.052  53.284  1.00  0.00     0.072 A 
HETATM    9  C7  UNL     1      19.862   2.255  52.680  1.00  0.00     0.174 C 
HETATM   10  C10 UNL     1      20.812   2.998  51.781  1.00  0.00     0.044 C 
HETATM   11  C11 UNL     1      22.208   3.161  52.324  1.00  0.00     0.005 C 
HETATM   12  C12 UNL     1      22.455   4.723  52.436  1.00  0.00     0.034 C 
HETATM   13  C13 UNL     1      23.951   4.669  52.681  1.00  0.00    -0.001 C 
HETATM   14  C14 UNL     1      24.439   3.569  52.060  1.00  0.00     0.013 C 
HETATM   15  C15 UNL     1      23.299   2.845  51.371  1.00  0.00     0.082 C 
HETATM   16  C16 UNL     1      24.193   1.729  51.396  1.00  0.00     0.192 C 
HETATM   17  N3  UNL     1      24.098   0.612  52.245  1.00  0.00    -0.369 N 
HETATM   18  N4  UNL     1      25.375   2.580  51.610  1.00  0.00    -0.356 N 
HETATM   19  H19 UNL     1      24.855  -0.061  52.482  1.00  0.00     0.158 HD
ENDROOT
BRANCH  18  20
HETATM   20  C17 UNL     1      26.806   2.593  51.482  1.00  0.00     0.184 C 
BRANCH  20  21
HETATM   21  C18 UNL     1      27.370   1.701  52.525  1.00  0.00     0.052 A 
HETATM   22  C19 UNL     1      28.255   2.304  53.406  1.00  0.00     0.029 A 
HETATM   23  C20 UNL     1      28.857   1.602  54.432  1.00  0.00     0.003 A 
HETATM   24  C21 UNL     1      28.525   0.259  54.529  1.00  0.00     0.019 A 
HETATM   25  C22 UNL     1      27.646  -0.300  53.637  1.00  0.00     0.117 A 
HETATM   26  N5  UNL     1      27.052   0.385  52.628  1.00  0.00    -0.264 NA
ENDBRANCH  20  21
ENDBRANCH  18  20
BRANCH   9  27
HETATM   27  O1  UNL     1      18.718   1.949  51.980  1.00  0.00    -0.380 OA
BRANCH  27  28
HETATM   28  C8  UNL     1      18.323   2.970  51.117  1.00  0.00     0.164 C 
HETATM   29  C9  UNL     1      17.100   3.717  51.588  1.00  0.00     0.033 C 
ENDBRANCH  27  28
ENDBRANCH   9  27
TORSDOF 4
ENDMDL
