ROOT
HETATM    1  C3  UNL     1      23.702   6.156  49.834  1.00  0.00     0.087 A 
HETATM    2  C4  UNL     1      23.921   4.826  50.006  1.00  0.00     0.035 A 
HETATM    3  C5  UNL     1      25.205   4.464  49.600  1.00  0.00     0.029 A 
HETATM    4  C6  UNL     1      26.274   5.205  49.060  1.00  0.00    -0.022 A 
HETATM    5  C7  UNL     1      27.451   4.602  48.738  1.00  0.00     0.012 A 
HETATM    6  C8  UNL     1      28.374   5.479  48.226  1.00  0.00     0.001 A 
HETATM    7  C9  UNL     1      28.174   6.822  48.042  1.00  0.00     0.001 A 
HETATM    8  C10 UNL     1      26.934   7.330  48.408  1.00  0.00     0.015 A 
HETATM    9  C11 UNL     1      25.916   6.557  48.934  1.00  0.00     0.009 A 
HETATM   10  C12 UNL     1      24.665   6.970  49.318  1.00  0.00     0.097 A 
HETATM   11  O3  UNL     1      24.584   8.354  49.073  1.00  0.00    -0.347 OA
HETATM   12  C13 UNL     1      23.832   8.784  47.920  1.00  0.00     0.205 C 
HETATM   13  C14 UNL     1      24.353   8.139  46.680  1.00  0.00     0.296 C 
HETATM   14  N1  UNL     1      23.493   8.564  45.554  1.00  0.00     0.085 N 
HETATM   15  C15 UNL     1      23.331   7.309  44.719  1.00  0.00     0.270 C 
HETATM   16  C16 UNL     1      22.471   6.481  45.597  1.00  0.00     0.034 C 
HETATM   17  C17 UNL     1      22.186   5.045  45.242  1.00  0.00     0.032 C 
HETATM   18  C18 UNL     1      21.380   4.593  46.436  1.00  0.00     0.014 C 
HETATM   19  C19 UNL     1      21.529   3.770  47.398  1.00  0.00     0.113 C 
HETATM   20  C20 UNL     1      22.208   2.775  48.168  1.00  0.00     0.215 C 
HETATM   21  O5  UNL     1      23.183   2.047  48.268  1.00  0.00    -0.284 OA
HETATM   22  C21 UNL     1      21.830   2.146  49.474  1.00  0.00     0.031 A 
HETATM   23  C22 UNL     1      21.002   1.012  49.532  1.00  0.00     0.016 A 
HETATM   24  C23 UNL     1      20.604   0.509  50.753  1.00  0.00     0.001 A 
HETATM   25  C24 UNL     1      21.001   1.089  51.928  1.00  0.00     0.001 A 
HETATM   26  C25 UNL     1      21.814   2.196  51.938  1.00  0.00     0.016 A 
HETATM   27  C26 UNL     1      22.210   2.699  50.737  1.00  0.00     0.029 A 
HETATM   28  C27 UNL     1      23.089   3.778  50.421  1.00  0.00     0.194 C 
HETATM   29  O6  UNL     1      23.573   4.087  51.585  1.00  0.00    -0.287 OA
HETATM   30  H13 UNL     1      22.527   8.779  45.874  1.00  0.00     0.315 HD
ENDROOT
BRANCH   1  31
HETATM   31  C2  UNL     1      22.423   6.668  50.258  1.00  0.00     0.296 C 
HETATM   32  O2  UNL     1      21.883   7.386  51.107  1.00  0.00    -0.259 OA
BRANCH  31  33
HETATM   33  O1  UNL     1      21.220   6.387  49.637  1.00  0.00    -0.322 OA
HETATM   34  C1  UNL     1      20.533   7.377  48.863  1.00  0.00     0.213 C 
ENDBRANCH  31  33
ENDBRANCH   1  31
BRANCH  19  35
HETATM   35  O4  UNL     1      20.437   3.761  48.248  1.00  0.00    -0.357 OA
HETATM   36  H21 UNL     1      19.643   4.384  48.136  1.00  0.00     0.217 HD
ENDBRANCH  19  35
TORSDOF 3
ENDMDL
