ROOT
HETATM    1  C2  UNL     1      19.823  -0.453  53.071  1.00  0.00     0.100 A 
HETATM    2  C3  UNL     1      19.598   0.173  51.862  1.00  0.00     0.076 A 
HETATM    3  C4  UNL     1      20.656   0.659  51.124  1.00  0.00     0.072 A 
HETATM    4  C12 UNL     1      21.939   0.488  51.650  1.00  0.00     0.054 A 
HETATM    5  C13 UNL     1      22.170  -0.134  52.852  1.00  0.00     0.044 A 
HETATM    6  C14 UNL     1      23.458  -0.277  53.324  1.00  0.00     0.142 A 
HETATM    7  N3  UNL     1      23.685  -0.890  54.506  1.00  0.00    -0.224 NA
HETATM    8  C20 UNL     1      22.620  -1.361  55.220  1.00  0.00     0.236 A 
HETATM    9  N4  UNL     1      21.352  -1.229  54.770  1.00  0.00    -0.238 NA
HETATM   10  C21 UNL     1      21.091  -0.618  53.585  1.00  0.00     0.105 A 
ENDROOT
BRANCH   3  11
HETATM   11  O2  UNL     1      20.598   1.301  49.911  1.00  0.00    -0.349 OA
BRANCH  11  12
HETATM   12  C5  UNL     1      21.721   2.047  49.481  1.00  0.00     0.206 C 
BRANCH  12  13
HETATM   13  C6  UNL     1      21.503   3.530  49.743  1.00  0.00     0.299 C 
BRANCH  13  14
HETATM   14  N1  UNL     1      22.799   4.173  49.870  1.00  0.00     0.090 N 
HETATM   15  C7  UNL     1      23.846   3.213  50.154  1.00  0.00     0.272 C 
HETATM   16  C8  UNL     1      24.616   3.583  51.387  1.00  0.00     0.030 C 
HETATM   17  C9  UNL     1      23.673   3.628  52.556  1.00  0.00     0.003 C 
HETATM   18  C10 UNL     1      22.608   4.663  52.262  1.00  0.00     0.030 C 
HETATM   19  C11 UNL     1      22.761   5.230  50.867  1.00  0.00     0.272 C 
ENDBRANCH  13  14
ENDBRANCH  12  13
ENDBRANCH  11  12
ENDBRANCH   3  11
BRANCH   1  20
HETATM   20  O1  UNL     1      18.770  -0.946  53.826  1.00  0.00    -0.353 OA
HETATM   21  C1  UNL     1      17.797  -1.754  53.195  1.00  0.00     0.210 C 
ENDBRANCH   1  20
BRANCH   6  22
HETATM   22  N2  UNL     1      24.590   0.186  52.641  1.00  0.00    -0.340 N 
HETATM   23  H20 UNL     1      24.717   0.712  51.751  1.00  0.00     0.167 HD
BRANCH  22  24
HETATM   24  C15 UNL     1      25.950   0.037  53.028  1.00  0.00     0.034 A 
HETATM   25  C16 UNL     1      26.711   0.941  53.664  1.00  0.00     0.045 A 
HETATM   26  C17 UNL     1      28.111   0.450  53.917  1.00  0.00     0.240 A 
HETATM   27  F1  UNL     1      28.203   0.352  55.297  1.00  0.00    -0.239 F 
HETATM   28  C18 UNL     1      28.041  -0.919  53.313  1.00  0.00     0.051 A 
HETATM   29 CL1  UNL     1      29.274  -2.164  53.189  1.00  0.00    -0.086 Cl
HETATM   30  C19 UNL     1      26.823  -1.111  52.827  1.00  0.00     0.052 A 
ENDBRANCH  22  24
ENDBRANCH   6  22
TORSDOF 7
ENDMDL
