ROOT
HETATM    1  N1  UNL     1      28.905   0.972  54.739  1.00  0.00    -0.192 NA
HETATM    2  C1  UNL     1      28.557   0.091  54.034  1.00  0.00     0.097 C 
HETATM    3  C2  UNL     1      28.110  -0.999  53.182  1.00  0.00     0.046 C 
HETATM    4  C3  UNL     1      27.029  -0.914  52.383  1.00  0.00     0.032 C 
ENDROOT
BRANCH   3   5
HETATM    5  C19 UNL     1      29.024  -2.193  53.311  1.00  0.00     0.214 C 
BRANCH   5   6
HETATM    6  O3  UNL     1      28.423  -3.369  52.904  1.00  0.00    -0.396 OA
HETATM    7  H18 UNL     1      27.680  -3.223  52.246  1.00  0.00     0.209 HD
ENDBRANCH   5   6
ENDBRANCH   3   5
BRANCH   4   8
HETATM    8  C4  UNL     1      26.347   0.371  52.443  1.00  0.00    -0.032 A 
HETATM    9  C5  UNL     1      25.381   0.614  53.420  1.00  0.00     0.014 A 
HETATM   10  C6  UNL     1      24.676   1.820  53.488  1.00  0.00     0.040 A 
HETATM   11  C7  UNL     1      24.987   2.787  52.521  1.00  0.00     0.099 A 
HETATM   12  C8  UNL     1      25.958   2.543  51.540  1.00  0.00     0.102 A 
HETATM   13  C18 UNL     1      26.626   1.341  51.511  1.00  0.00     0.051 A 
BRANCH  11  14
HETATM   14  O1  UNL     1      24.220   3.961  52.678  1.00  0.00    -0.358 OA
HETATM   15  H4  UNL     1      23.411   4.123  52.059  1.00  0.00     0.217 HD
ENDBRANCH  11  14
BRANCH  12  16
HETATM   16  O2  UNL     1      26.040   3.652  50.744  1.00  0.00    -0.348 OA
BRANCH  16  17
HETATM   17  C9  UNL     1      25.676   3.816  49.412  1.00  0.00     0.176 C 
BRANCH  17  18
HETATM   18  C10 UNL     1      24.569   4.873  49.297  1.00  0.00     0.030 C 
BRANCH  18  19
HETATM   19  C11 UNL     1      23.327   4.216  48.738  1.00  0.00     0.031 C 
BRANCH  19  20
HETATM   20  C12 UNL     1      23.101   2.849  49.195  1.00  0.00     0.005 C 
HETATM   21  C13 UNL     1      22.375   2.499  50.233  1.00  0.00     0.053 C 
HETATM   22  C14 UNL     1      22.219   1.075  50.594  1.00  0.00     0.031 C 
HETATM   23  N2  UNL     1      21.747   3.547  50.998  1.00  0.00    -0.247 NA
HETATM   24  C15 UNL     1      21.460   0.857  51.673  1.00  0.00     0.005 C 
HETATM   25  C16 UNL     1      20.868   1.997  52.383  1.00  0.00     0.034 C 
HETATM   26  C17 UNL     1      20.852   3.212  51.859  1.00  0.00     0.086 C 
ENDBRANCH  19  20
ENDBRANCH  18  19
ENDBRANCH  17  18
ENDBRANCH  16  17
ENDBRANCH  12  16
ENDBRANCH   4   8
TORSDOF 9
ENDMDL
