ROOT
HETATM    1  O1  UNL     1      29.790   2.480  54.956  1.00  0.00    -0.269 OA
HETATM    2  C1  UNL     1      29.095   1.644  54.299  1.00  0.00     0.242 C 
HETATM    3  C2  UNL     1      29.705   0.395  53.850  1.00  0.00     0.074 C 
HETATM    4  C3  UNL     1      29.034  -0.694  53.444  1.00  0.00     0.007 C 
HETATM    5  C4  UNL     1      27.626  -0.973  53.327  1.00  0.00     0.030 C 
HETATM    6  C5  UNL     1      26.685  -0.085  53.505  1.00  0.00     0.060 C 
HETATM    7  N1  UNL     1      25.523  -0.887  53.271  1.00  0.00    -0.265 NA
HETATM    8  C6  UNL     1      24.275  -0.656  53.170  1.00  0.00     0.118 C 
HETATM    9  C7  UNL     1      23.602   0.637  53.273  1.00  0.00     0.143 C 
HETATM   10  C13 UNL     1      24.421   1.645  52.516  1.00  0.00     0.001 C 
HETATM   11  C14 UNL     1      25.712   1.953  52.755  1.00  0.00     0.003 C 
HETATM   12  C15 UNL     1      26.559   1.326  53.836  1.00  0.00     0.160 C 
HETATM   13  N3  UNL     1      27.739   2.062  54.077  1.00  0.00    -0.344 N 
HETATM   14  H16 UNL     1      27.547   3.099  54.088  1.00  0.00     0.163 HD
ENDROOT
BRANCH   9  15
HETATM   15  N2  UNL     1      22.271   0.688  52.780  1.00  0.00    -0.396 N 
HETATM   16  C8  UNL     1      21.238   0.572  53.742  1.00  0.00     0.145 C 
HETATM   17  C9  UNL     1      20.022   0.107  52.978  1.00  0.00    -0.010 C 
HETATM   18  C10 UNL     1      19.964   0.173  51.634  1.00  0.00    -0.012 C 
HETATM   19  C11 UNL     1      21.062   0.699  50.760  1.00  0.00     0.098 C 
HETATM   20 BR1  UNL     1      20.425   1.694  49.260  1.00  0.00    -0.085 Br
HETATM   21  C12 UNL     1      22.020   1.506  51.648  1.00  0.00     0.138 C 
ENDBRANCH   9  15
TORSDOF 1
ENDMDL
