ROOT
HETATM    1  N3  UNL     1      26.279   2.775  50.155  1.00  0.00    -0.237 NA
HETATM    2  C7  UNL     1      26.395   2.529  51.423  1.00  0.00     0.204 C 
ENDROOT
BRANCH   1   3
HETATM    3  C6  UNL     1      26.696   4.007  49.584  1.00  0.00     0.245 C 
HETATM    4  N2  UNL     1      27.293   4.668  48.650  1.00  0.00    -0.191 NA
BRANCH   4   5
HETATM    5  C5  UNL     1      27.320   6.043  48.747  1.00  0.00     0.044 C 
BRANCH   5   6
HETATM    6  S1  UNL     1      27.332   7.893  48.896  1.00  0.00     0.037 SA
BRANCH   6   7
HETATM    7  C4  UNL     1      27.315   9.729  49.031  1.00  0.00     0.046 C 
BRANCH   7   8
HETATM    8  N1  UNL     1      27.292  11.104  49.109  1.00  0.00    -0.173 NA
HETATM    9  C3  UNL     1      28.378  11.770  49.043  1.00  0.00     0.172 C 
BRANCH   9  10
HETATM   10  C2  UNL     1      29.686  11.158  48.885  1.00  0.00     0.048 C 
HETATM   11  C1  UNL     1      30.724  11.937  49.029  1.00  0.00     0.015 C 
ENDBRANCH   9  10
BRANCH   9  12
HETATM   12  O3  UNL     1      28.174  13.138  49.138  1.00  0.00    -0.339 OA
HETATM   13  C14 UNL     1      27.375  13.830  48.186  1.00  0.00     0.211 C 
ENDBRANCH   9  12
ENDBRANCH   7   8
ENDBRANCH   6   7
ENDBRANCH   5   6
ENDBRANCH   4   5
ENDBRANCH   1   3
BRANCH   2  14
HETATM   14  N4  UNL     1      25.942   1.265  51.857  1.00  0.00    -0.374 N 
HETATM   15  H6  UNL     1      24.956   1.065  52.081  1.00  0.00     0.161 HD
BRANCH  14  16
HETATM   16  C8  UNL     1      26.903   0.184  52.000  1.00  0.00     0.131 C 
HETATM   17  C9  UNL     1      27.969   0.655  52.924  1.00  0.00     0.034 C 
HETATM   18  C10 UNL     1      27.525   0.636  54.175  1.00  0.00     0.067 C 
HETATM   19  C12 UNL     1      26.186   0.218  54.592  1.00  0.00     0.231 C 
HETATM   20  O2  UNL     1      25.576  -0.720  53.795  1.00  0.00    -0.382 OA
HETATM   21  C13 UNL     1      26.272  -1.029  52.638  1.00  0.00     0.197 C 
BRANCH  18  22
HETATM   22  O1  UNL     1      28.489   1.070  55.079  1.00  0.00    -0.358 OA
HETATM   23  C11 UNL     1      29.501   1.934  54.578  1.00  0.00     0.209 C 
ENDBRANCH  18  22
ENDBRANCH  14  16
ENDBRANCH   2  14
TORSDOF 10
ENDMDL
