ROOT
HETATM    1  C2  UNL     1      17.297  -0.416  52.129  1.00  0.00     0.107 C 
HETATM    2  C3  UNL     1      18.255  -0.013  51.321  1.00  0.00     0.173 C 
HETATM    3  O2  UNL     1      19.619  -0.199  51.483  1.00  0.00    -0.354 OA
HETATM    4  C4  UNL     1      20.329   0.671  52.377  1.00  0.00     0.231 C 
HETATM    5  C5  UNL     1      21.415  -0.093  53.069  1.00  0.00     0.035 C 
HETATM    6  C6  UNL     1      22.552   0.425  52.798  1.00  0.00    -0.010 C 
HETATM    7  C7  UNL     1      23.441  -0.482  53.577  1.00  0.00     0.030 C 
HETATM    8  C8  UNL     1      24.708  -0.727  53.914  1.00  0.00     0.091 C 
HETATM    9  N1  UNL     1      26.063  -0.265  53.743  1.00  0.00    -0.370 N 
HETATM   10  C9  UNL     1      26.647   0.425  54.911  1.00  0.00     0.154 C 
HETATM   11  C10 UNL     1      26.844  -0.459  52.559  1.00  0.00     0.102 C 
HETATM   12  C11 UNL     1      26.563   0.517  51.718  1.00  0.00    -0.008 C 
HETATM   13  C12 UNL     1      26.229   1.636  52.307  1.00  0.00     0.032 C 
HETATM   14  C13 UNL     1      24.845   1.463  52.259  1.00  0.00     0.012 C 
HETATM   15 BR1  UNL     1      24.802   2.865  50.906  1.00  0.00    -0.051 Br
HETATM   16  C14 UNL     1      23.593   1.218  52.289  1.00  0.00     0.032 C 
HETATM   17  N2  UNL     1      21.000  -1.172  53.866  1.00  0.00    -0.373 NA
HETATM   18  C15 UNL     1      19.813  -1.593  53.870  1.00  0.00     0.403 C 
HETATM   19  N3  UNL     1      18.733  -1.080  53.108  1.00  0.00    -0.251 NA
HETATM   20  C16 UNL     1      17.509  -1.150  53.378  1.00  0.00     0.156 C 
ENDROOT
BRANCH   1  21
HETATM   21  O1  UNL     1      15.990  -0.118  51.764  1.00  0.00    -0.353 OA
HETATM   22  C1  UNL     1      15.165   0.703  52.596  1.00  0.00     0.210 C 
ENDBRANCH   1  21
TORSDOF 1
ENDMDL
