ROOT
HETATM    1  C7  UNL     1      25.501   3.211  50.919  1.00  0.00     0.064 A 
HETATM    2  C8  UNL     1      24.471   3.362  51.681  1.00  0.00     0.132 A 
HETATM    3  C9  UNL     1      23.648   3.829  50.489  1.00  0.00     0.242 C 
HETATM    4  C19 UNL     1      24.387   3.765  49.204  1.00  0.00     0.101 A 
HETATM    5  C20 UNL     1      25.658   4.582  49.358  1.00  0.00     0.032 A 
HETATM    6  C21 UNL     1      24.878   4.473  50.376  1.00  0.00     0.068 A 
HETATM    7  N3  UNL     1      23.753   5.217  50.754  1.00  0.00    -0.374 N 
HETATM    8  H27 UNL     1      23.564   6.171  50.996  1.00  0.00     0.157 HD
ENDROOT
BRANCH   3   9
HETATM    9  N2  UNL     1      22.346   3.287  50.484  1.00  0.00     0.118 N 
HETATM   10  H14 UNL     1      21.799   3.739  51.248  1.00  0.00     0.319 HD
BRANCH   9  11
HETATM   11  C10 UNL     1      22.442   1.870  50.828  1.00  0.00     0.233 A 
HETATM   12  C11 UNL     1      21.580   0.879  50.153  1.00  0.00     0.048 A 
HETATM   13  C12 UNL     1      21.290   1.234  51.557  1.00  0.00     0.054 A 
BRANCH  13  14
HETATM   14  C13 UNL     1      21.590   0.279  52.656  1.00  0.00    -0.052 A 
HETATM   15  C14 UNL     1      20.614  -0.513  53.222  1.00  0.00     0.007 A 
HETATM   16  C15 UNL     1      20.853  -1.409  54.240  1.00  0.00     0.001 A 
HETATM   17  C16 UNL     1      22.153  -1.539  54.740  1.00  0.00     0.000 A 
HETATM   18  C17 UNL     1      23.162  -0.764  54.200  1.00  0.00     0.001 A 
HETATM   19  C18 UNL     1      22.878   0.125  53.178  1.00  0.00     0.007 A 
ENDBRANCH  13  14
ENDBRANCH   9  11
ENDBRANCH   3   9
BRANCH   1  20
HETATM   20  O2  UNL     1      26.375   2.108  51.111  1.00  0.00    -0.338 OA
BRANCH  20  21
HETATM   21  C6  UNL     1      27.232   2.261  52.243  1.00  0.00     0.295 C 
BRANCH  21  22
HETATM   22  N1  UNL     1      27.673   1.024  52.763  1.00  0.00    -0.384 N 
HETATM   23  C2  UNL     1      26.652   0.209  53.364  1.00  0.00     0.101 C 
HETATM   24  C1  UNL     1      26.553  -1.079  52.557  1.00  0.00     0.034 C 
HETATM   25  C3  UNL     1      26.792  -0.035  54.822  1.00  0.00     0.192 C 
HETATM   26  O1  UNL     1      28.060  -0.196  55.304  1.00  0.00    -0.388 OA
HETATM   27  C4  UNL     1      29.044  -0.183  54.331  1.00  0.00     0.187 C 
HETATM   28  C5  UNL     1      28.894   1.070  53.508  1.00  0.00     0.145 C 
ENDBRANCH  21  22
ENDBRANCH  20  21
ENDBRANCH   1  20
TORSDOF 6
ENDMDL
