ROOT
HETATM    1  C1  UNL     1      22.256   1.395  52.304  1.00  0.00     0.343 C 
HETATM    2  C2  UNL     1      21.385   2.486  52.152  1.00  0.00     0.231 C 
HETATM    3  O1  UNL     1      20.695   3.587  52.033  1.00  0.00    -0.349 OA
HETATM    4  P1  UNL     1      21.908   4.803  51.706  1.00  0.00     0.104 P 
HETATM    5  C3  UNL     1      21.805   4.912  50.108  1.00  0.00     0.124 C 
HETATM    6  N2  UNL     1      22.844   5.160  49.417  1.00  0.00    -0.236 NA
HETATM    7  C4  UNL     1      23.847   5.836  50.213  1.00  0.00     0.404 C 
HETATM    8  N3  UNL     1      25.124   5.888  50.378  1.00  0.00    -0.371 NA
HETATM    9  C5  UNL     1      26.012   5.080  49.607  1.00  0.00     0.034 C 
HETATM   10  C12 UNL     1      25.952   3.776  49.756  1.00  0.00     0.031 C 
HETATM   11  C13 UNL     1      25.097   3.029  50.616  1.00  0.00     0.031 C 
HETATM   12  C14 UNL     1      24.151   3.167  51.518  1.00  0.00     0.035 C 
HETATM   13  C15 UNL     1      23.496   4.398  52.099  1.00  0.00     0.070 C 
HETATM   14  N4  UNL     1      23.660   1.840  51.969  1.00  0.00    -0.348 N 
ENDROOT
BRANCH  14  15
HETATM   15  C16 UNL     1      24.715   0.880  52.115  1.00  0.00     0.145 C 
BRANCH  15  16
HETATM   16  C17 UNL     1      25.221   0.569  53.464  1.00  0.00     0.145 C 
BRANCH  16  17
HETATM   17  N5  UNL     1      26.678   0.828  53.584  1.00  0.00    -0.347 N 
HETATM   18  C18 UNL     1      27.105   2.207  53.574  1.00  0.00     0.152 C 
HETATM   19  C19 UNL     1      28.605   2.239  53.768  1.00  0.00     0.188 C 
HETATM   20  O2  UNL     1      29.046   1.255  54.639  1.00  0.00    -0.380 OA
HETATM   21  C20 UNL     1      28.973   0.049  53.944  1.00  0.00     0.270 C 
HETATM   22  C21 UNL     1      27.534  -0.316  53.698  1.00  0.00     0.243 C 
HETATM   23  O3  UNL     1      27.159  -1.493  53.607  1.00  0.00    -0.271 OA
ENDBRANCH  16  17
ENDBRANCH  15  16
ENDBRANCH  14  15
BRANCH   1  24
HETATM   24  N1  UNL     1      21.871   0.302  51.399  1.00  0.00     0.103 N 
HETATM   25  H1  UNL     1      22.477  -0.527  51.506  1.00  0.00     0.315 HD
HETATM   26  H2  UNL     1      20.852   0.102  51.469  1.00  0.00     0.315 HD
ENDBRANCH   1  24
BRANCH   9  27
HETATM   27  C6  UNL     1      26.894   5.831  48.732  1.00  0.00    -0.010 A 
HETATM   28  C7  UNL     1      28.209   5.483  48.508  1.00  0.00     0.017 A 
HETATM   29  C8  UNL     1      29.057   6.182  47.685  1.00  0.00     0.043 A 
HETATM   30  C9  UNL     1      28.617   7.302  47.023  1.00  0.00     0.116 A 
HETATM   31  F1  UNL     1      29.471   7.971  46.218  1.00  0.00    -0.206 F 
HETATM   32  C10 UNL     1      27.317   7.700  47.207  1.00  0.00     0.043 A 
HETATM   33  C11 UNL     1      26.513   6.961  48.042  1.00  0.00     0.017 A 
ENDBRANCH   9  27
TORSDOF 5
ENDMDL
