ROOT
HETATM    1  C4  UNL     1      24.920   5.061  50.028  1.00  0.00     0.142 A 
HETATM    2  N2  UNL     1      23.927   5.499  50.820  1.00  0.00    -0.224 NA
HETATM    3  C5  UNL     1      23.816   6.774  51.216  1.00  0.00     0.236 A 
HETATM    4  N3  UNL     1      24.722   7.714  50.827  1.00  0.00    -0.241 NA
HETATM    5  C6  UNL     1      25.741   7.347  50.033  1.00  0.00     0.075 A 
HETATM    6  C7  UNL     1      26.645   8.315  49.653  1.00  0.00     0.072 A 
HETATM    7  C8  UNL     1      27.681   7.909  48.838  1.00  0.00     0.103 A 
HETATM    8  C10 UNL     1      27.820   6.603  48.416  1.00  0.00     0.102 A 
HETATM    9  C12 UNL     1      26.871   5.692  48.841  1.00  0.00     0.057 A 
HETATM   10  C13 UNL     1      25.826   6.026  49.644  1.00  0.00     0.042 A 
ENDROOT
BRANCH   1  11
HETATM   11  N1  UNL     1      24.989   3.710  49.643  1.00  0.00    -0.339 N 
HETATM   12  H4  UNL     1      24.863   3.314  48.709  1.00  0.00     0.167 HD
BRANCH  11  13
HETATM   13  C3  UNL     1      25.269   2.752  50.669  1.00  0.00     0.052 A 
HETATM   14  P1  UNL     1      24.024   1.737  51.377  1.00  0.00     0.038 P 
HETATM   15  C2  UNL     1      24.671   0.673  52.600  1.00  0.00     0.118 A 
HETATM   16  C17 UNL     1      26.025   0.768  52.838  1.00  0.00     0.136 A 
HETATM   17  C15 UNL     1      26.851   1.639  52.169  1.00  0.00     0.106 A 
HETATM   18  C14 UNL     1      26.525   2.529  51.199  1.00  0.00     0.070 A 
BRANCH  15  19
HETATM   19  O1  UNL     1      23.690  -0.126  53.157  1.00  0.00    -0.352 OA
HETATM   20  C1  UNL     1      22.380   0.208  53.460  1.00  0.00     0.210 C 
ENDBRANCH  15  19
BRANCH  16  21
HETATM   21  O5  UNL     1      26.469  -0.113  53.828  1.00  0.00    -0.351 OA
HETATM   22  C18 UNL     1      26.382   0.196  55.204  1.00  0.00     0.210 C 
ENDBRANCH  16  21
BRANCH  17  23
HETATM   23  O4  UNL     1      28.171   1.541  52.591  1.00  0.00    -0.353 OA
HETATM   24  C16 UNL     1      28.646   2.534  53.475  1.00  0.00     0.210 C 
ENDBRANCH  17  23
ENDBRANCH  11  13
ENDBRANCH   1  11
BRANCH   8  25
HETATM   25  O3  UNL     1      28.869   6.233  47.602  1.00  0.00    -0.353 OA
HETATM   26  C11 UNL     1      29.996   5.578  48.139  1.00  0.00     0.210 C 
ENDBRANCH   8  25
BRANCH   7  27
HETATM   27  O2  UNL     1      28.630   8.858  48.422  1.00  0.00    -0.353 OA
HETATM   28  C9  UNL     1      29.651   9.264  49.314  1.00  0.00     0.210 C 
ENDBRANCH   7  27
TORSDOF 7
ENDMDL
