ROOT
HETATM    1  C4  UNL     1      26.536   3.278  49.935  1.00  0.00    -0.003 C 
HETATM    2  C5  UNL     1      26.145   4.538  49.806  1.00  0.00    -0.007 C 
ENDROOT
BRANCH   1   3
HETATM    3  C3  UNL     1      26.061   2.434  51.026  1.00  0.00    -0.002 C 
HETATM    4  C2  UNL     1      26.909   1.997  51.949  1.00  0.00     0.002 C 
BRANCH   4   5
HETATM    5  C1  UNL     1      26.502   1.134  53.089  1.00  0.00     0.130 C 
BRANCH   5   6
HETATM    6  N1  UNL     1      26.729   1.942  54.289  1.00  0.00    -0.419 N 
HETATM    7  H1  UNL     1      27.148   1.416  55.063  1.00  0.00     0.150 HD
HETATM    8  H2  UNL     1      27.111   2.873  54.093  1.00  0.00     0.150 HD
ENDBRANCH   5   6
BRANCH   5   9
HETATM    9  C15 UNL     1      27.366  -0.074  53.102  1.00  0.00    -0.032 A 
HETATM   10  C16 UNL     1      26.966  -1.337  52.717  1.00  0.00     0.009 A 
HETATM   11  C17 UNL     1      27.870  -2.378  52.777  1.00  0.00     0.001 A 
HETATM   12  C18 UNL     1      29.157  -2.104  53.225  1.00  0.00     0.000 A 
HETATM   13  C19 UNL     1      29.585  -0.853  53.616  1.00  0.00     0.001 A 
HETATM   14  C20 UNL     1      28.653   0.163  53.543  1.00  0.00     0.009 A 
ENDBRANCH   5   9
ENDBRANCH   4   5
ENDBRANCH   1   3
BRANCH   2  15
HETATM   15  C6  UNL     1      26.653   5.385  48.668  1.00  0.00     0.151 C 
BRANCH  15  16
HETATM   16  N2  UNL     1      26.817   6.750  49.104  1.00  0.00    -0.369 N 
HETATM   17  C7  UNL     1      27.971   7.081  48.356  1.00  0.00     0.205 C 
HETATM   18  N3  UNL     1      28.589   7.042  47.233  1.00  0.00    -0.257 NA
HETATM   19  C8  UNL     1      29.899   7.641  47.103  1.00  0.00     0.114 C 
HETATM   20  C9  UNL     1      30.923   8.182  47.728  1.00  0.00    -0.007 C 
HETATM   21  C10 UNL     1      31.021   8.372  49.191  1.00  0.00     0.039 C 
HETATM   22  C11 UNL     1      30.771   9.820  49.552  1.00  0.00     0.082 C 
HETATM   23  S1  UNL     1      29.185  10.412  48.989  1.00  0.00    -0.141 SA
HETATM   24  C12 UNL     1      27.764   9.685  49.698  1.00  0.00     0.042 C 
HETATM   25  C13 UNL     1      26.719   8.948  50.129  1.00  0.00    -0.001 C 
HETATM   26  C14 UNL     1      26.097   7.629  50.003  1.00  0.00     0.151 C 
ENDBRANCH  15  16
ENDBRANCH   2  15
TORSDOF 6
ENDMDL
