ROOT
HETATM    1  O1  UNL     1      23.452   3.910  53.018  1.00  0.00    -0.259 OA
HETATM    2  C1  UNL     1      24.493   3.263  52.783  1.00  0.00     0.300 A 
HETATM    3  O2  UNL     1      25.293   2.665  53.673  1.00  0.00    -0.251 OA
HETATM    4  C2  UNL     1      26.368   2.023  53.204  1.00  0.00     0.188 A 
HETATM    5  C3  UNL     1      26.848   1.859  51.887  1.00  0.00     0.065 A 
HETATM    6  C4  UNL     1      26.019   2.473  50.979  1.00  0.00     0.022 A 
HETATM    7  C5  UNL     1      24.930   3.105  51.500  1.00  0.00     0.041 A 
HETATM    8  C6  UNL     1      24.047   3.478  50.377  1.00  0.00     0.042 C 
HETATM    9  C7  UNL     1      23.274   2.346  50.425  1.00  0.00     0.142 C 
HETATM   10  O3  UNL     1      22.698   1.051  50.779  1.00  0.00    -0.335 OA
HETATM   11  C8  UNL     1      22.313   1.009  52.154  1.00  0.00     0.141 C 
HETATM   12  C9  UNL     1      23.064   0.515  53.094  1.00  0.00     0.027 C 
HETATM   13  C10 UNL     1      24.321  -0.011  52.595  1.00  0.00     0.037 C 
HETATM   14  C11 UNL     1      25.455  -0.536  53.095  1.00  0.00     0.089 C 
HETATM   15  C12 UNL     1      25.622  -0.595  54.594  1.00  0.00     0.094 C 
HETATM   16  C13 UNL     1      26.839   0.290  54.915  1.00  0.00     0.184 C 
HETATM   17  O7  UNL     1      26.653   1.662  54.541  1.00  0.00    -0.330 OA
ENDROOT
BRANCH  14  18
HETATM   18  O4  UNL     1      26.683  -1.079  52.654  1.00  0.00    -0.172 OA
BRANCH  18  19
HETATM   19  O5  UNL     1      26.763  -2.393  52.358  1.00  0.00    -0.064 OA
BRANCH  19  20
HETATM   20  O6  UNL     1      27.788  -2.948  52.942  1.00  0.00    -0.220 OA
HETATM   21  H8  UNL     1      27.819  -3.935  52.865  1.00  0.00     0.256 HD
ENDBRANCH  19  20
ENDBRANCH  18  19
ENDBRANCH  14  18
TORSDOF 3
ENDMDL
