ROOT
HETATM    1  C2  UNL     1      19.408  -0.459  52.502  1.00  0.00     0.287 C 
HETATM    2  O2  UNL     1      20.343  -0.564  53.348  1.00  0.00    -0.357 OA
HETATM    3  C3  UNL     1      21.269  -0.710  54.165  1.00  0.00     0.197 C 
HETATM    4  C4  UNL     1      22.731  -0.880  53.821  1.00  0.00     0.202 C 
HETATM    5  O3  UNL     1      23.409   0.150  53.206  1.00  0.00    -0.348 OA
HETATM    6  C5  UNL     1      23.136   0.823  52.065  1.00  0.00     0.087 A 
HETATM    7  C6  UNL     1      22.015   0.611  51.324  1.00  0.00     0.074 A 
HETATM    8  C7  UNL     1      21.448   1.117  50.183  1.00  0.00     0.074 A 
HETATM    9  C8  UNL     1      22.305   2.077  49.724  1.00  0.00     0.069 A 
HETATM   10  C9  UNL     1      23.474   2.397  50.356  1.00  0.00     0.077 A 
HETATM   11  N1  UNL     1      24.148   3.392  49.701  1.00  0.00    -0.241 NA
HETATM   12  C10 UNL     1      25.326   3.753  50.304  1.00  0.00     0.236 A 
HETATM   13  N2  UNL     1      25.757   3.169  51.435  1.00  0.00    -0.223 NA
HETATM   14  C11 UNL     1      25.095   2.204  52.064  1.00  0.00     0.144 A 
HETATM   15  C18 UNL     1      23.915   1.800  51.513  1.00  0.00     0.072 A 
HETATM   16  O4  UNL     1      20.422   0.232  50.404  1.00  0.00    -0.341 OA
HETATM   17  C19 UNL     1      19.390   0.471  51.341  1.00  0.00     0.180 C 
HETATM   18  C20 UNL     1      18.030   0.623  50.713  1.00  0.00     0.045 C 
ENDROOT
BRANCH  14  19
HETATM   19  N3  UNL     1      25.568   1.613  53.258  1.00  0.00    -0.340 N 
HETATM   20  H12 UNL     1      25.209   1.523  54.215  1.00  0.00     0.167 HD
BRANCH  19  21
HETATM   21  C12 UNL     1      26.812   0.933  53.373  1.00  0.00     0.035 A 
HETATM   22  C13 UNL     1      27.929   1.659  53.726  1.00  0.00     0.032 A 
HETATM   23  C14 UNL     1      29.189   1.071  53.842  1.00  0.00     0.046 A 
HETATM   24  C15 UNL     1      29.391  -0.265  53.611  1.00  0.00     0.138 A 
HETATM   25  F1  UNL     1      30.569  -0.903  53.701  1.00  0.00    -0.204 F 
HETATM   26  C16 UNL     1      28.300  -1.028  53.254  1.00  0.00     0.074 A 
HETATM   27 CL1  UNL     1      28.447  -2.727  52.943  1.00  0.00    -0.081 Cl
HETATM   28  C17 UNL     1      27.084  -0.397  53.155  1.00  0.00     0.056 A 
ENDBRANCH  19  21
ENDBRANCH  14  19
BRANCH   1  29
HETATM   29  O1  UNL     1      18.135  -0.251  53.210  1.00  0.00    -0.363 OA
HETATM   30  C1  UNL     1      17.673  -1.548  53.480  1.00  0.00     0.204 C 
ENDBRANCH   1  29
TORSDOF 3
ENDMDL
