ROOT
HETATM    1  C7  UNL     1      24.773   2.069  52.633  1.00  0.00     0.008 A 
HETATM    2  C8  UNL     1      24.587   3.167  53.360  1.00  0.00     0.024 A 
HETATM    3  C9  UNL     1      23.675   4.228  52.923  1.00  0.00     0.001 A 
HETATM    4  C10 UNL     1      23.072   4.006  51.775  1.00  0.00     0.021 A 
HETATM    5  C11 UNL     1      23.178   2.854  50.873  1.00  0.00     0.227 A 
HETATM    6  C12 UNL     1      24.111   1.782  51.333  1.00  0.00     0.109 A 
HETATM    7  N2  UNL     1      21.890   2.262  50.565  1.00  0.00     0.122 N 
HETATM    8  C13 UNL     1      22.134   1.656  49.252  1.00  0.00     0.420 C 
HETATM    9  N3  UNL     1      23.012   2.616  48.576  1.00  0.00    -0.260 NA
HETATM   10  C14 UNL     1      23.617   3.309  49.509  1.00  0.00     0.086 C 
HETATM   11  H16 UNL     1      21.132   2.963  50.485  1.00  0.00     0.320 HD
ENDROOT
BRANCH  10  12
HETATM   12  C15 UNL     1      24.563   4.354  49.198  1.00  0.00     0.019 A 
HETATM   13  C16 UNL     1      25.946   4.350  49.333  1.00  0.00     0.130 A 
HETATM   14  N4  UNL     1      26.682   5.406  48.998  1.00  0.00    -0.272 NA
HETATM   15  C17 UNL     1      26.123   6.543  48.505  1.00  0.00     0.117 A 
HETATM   16  C18 UNL     1      24.750   6.605  48.349  1.00  0.00     0.031 A 
HETATM   17  C19 UNL     1      23.985   5.510  48.697  1.00  0.00    -0.020 A 
BRANCH  17  18
HETATM   18  C20 UNL     1      22.549   5.674  48.494  1.00  0.00     0.024 C 
HETATM   19  C21 UNL     1      21.738   6.510  49.124  1.00  0.00     0.085 C 
HETATM   20 CL1  UNL     1      20.034   6.627  48.805  1.00  0.00    -0.097 Cl
ENDBRANCH  17  18
ENDBRANCH  10  12
BRANCH   1  21
HETATM   21  N1  UNL     1      25.660   1.060  53.079  1.00  0.00    -0.382 N 
HETATM   22  H10 UNL     1      24.975   0.617  53.755  1.00  0.00     0.160 HD
BRANCH  21  23
HETATM   23  C6  UNL     1      27.002   0.563  52.893  1.00  0.00     0.151 C 
HETATM   24  C1  UNL     1      27.889   1.213  53.877  1.00  0.00     0.149 C 
HETATM   25  O1  UNL     1      27.921   2.407  54.115  1.00  0.00    -0.296 OA
HETATM   26  C2  UNL     1      28.824   0.344  54.648  1.00  0.00     0.080 C 
HETATM   27  C3  UNL     1      29.411  -0.744  53.779  1.00  0.00     0.007 C 
HETATM   28  C4  UNL     1      28.381  -1.526  53.041  1.00  0.00     0.003 C 
HETATM   29  C5  UNL     1      27.000  -0.930  53.111  1.00  0.00     0.033 C 
ENDBRANCH  21  23
ENDBRANCH   1  21
TORSDOF 4
ENDMDL
