ROOT
HETATM    1  N2  UNL     1      24.684   0.235  53.311  1.00  0.00    -0.199 N 
HETATM    2  C4  UNL     1      23.843  -0.667  54.059  1.00  0.00     0.140 A 
HETATM    3  C5  UNL     1      22.546  -0.809  53.803  1.00  0.00     0.059 A 
HETATM    4  C6  UNL     1      21.977  -0.013  52.726  1.00  0.00     0.087 A 
HETATM    5  C8  UNL     1      22.748   0.810  52.047  1.00  0.00     0.155 A 
HETATM    6  N3  UNL     1      24.137   0.993  52.284  1.00  0.00    -0.244 N 
ENDROOT
BRANCH   6   7
HETATM    7  C9  UNL     1      24.901   1.905  51.553  1.00  0.00     0.058 A 
HETATM    8  C10 UNL     1      26.237   2.181  51.452  1.00  0.00     0.034 A 
HETATM    9  C11 UNL     1      26.793   3.167  50.673  1.00  0.00     0.032 A 
HETATM   10  C12 UNL     1      25.993   3.976  49.909  1.00  0.00     0.036 A 
HETATM   11  C13 UNL     1      24.640   3.760  49.956  1.00  0.00    -0.028 A 
HETATM   12  N4  UNL     1      26.347   5.028  49.053  1.00  0.00    -0.384 N 
HETATM   13  C14 UNL     1      24.126   2.756  50.755  1.00  0.00     0.041 A 
HETATM   14  C15 UNL     1      24.057   4.774  49.038  1.00  0.00     0.060 C 
HETATM   15  C16 UNL     1      25.124   5.816  48.868  1.00  0.00     0.127 C 
HETATM   16  C17 UNL     1      27.631   5.325  48.448  1.00  0.00     0.149 C 
ENDBRANCH   6   7
BRANCH   1  17
HETATM   17  N1  UNL     1      25.977   0.195  53.803  1.00  0.00    -0.249 N 
HETATM   18  C3  UNL     1      27.108  -0.627  53.757  1.00  0.00     0.237 C 
HETATM   19  O1  UNL     1      27.066  -1.705  53.087  1.00  0.00    -0.272 OA
HETATM   20  H6  UNL     1      25.941   1.112  54.343  1.00  0.00     0.192 HD
BRANCH  18  21
HETATM   21  C2  UNL     1      28.276  -0.107  54.540  1.00  0.00     0.100 C 
HETATM   22  C1  UNL     1      29.551  -0.533  53.860  1.00  0.00     0.014 C 
ENDBRANCH  18  21
ENDBRANCH   1  17
BRANCH   4  23
HETATM   23  O2  UNL     1      20.623  -0.152  52.449  1.00  0.00    -0.354 OA
HETATM   24  C7  UNL     1      19.655  -0.523  53.414  1.00  0.00     0.210 C 
ENDBRANCH   4  23
TORSDOF 4
ENDMDL
