ROOT
HETATM    1  C5  UNL     1      20.762   0.690  51.611  1.00  0.00     0.140 A 
HETATM    2  N2  UNL     1      19.424   0.461  51.565  1.00  0.00    -0.224 NA
HETATM    3  C6  UNL     1      18.755  -0.283  52.443  1.00  0.00     0.236 A 
HETATM    4  N3  UNL     1      19.404  -0.866  53.459  1.00  0.00    -0.241 NA
HETATM    5  C7  UNL     1      20.725  -0.718  53.613  1.00  0.00     0.072 A 
HETATM    6  C8  UNL     1      21.473  -1.285  54.610  1.00  0.00     0.035 A 
HETATM    7  C9  UNL     1      22.846  -1.120  54.729  1.00  0.00     0.031 A 
HETATM    8  C10 UNL     1      23.480  -0.326  53.765  1.00  0.00     0.029 A 
HETATM    9  C17 UNL     1      22.709   0.234  52.774  1.00  0.00     0.046 A 
HETATM   10  C18 UNL     1      21.351   0.058  52.675  1.00  0.00     0.041 A 
ENDROOT
BRANCH   8  11
HETATM   11  N4  UNL     1      24.894  -0.148  53.877  1.00  0.00    -0.389 N 
HETATM   12  H10 UNL     1      25.230   0.636  54.478  1.00  0.00     0.159 HD
BRANCH  11  13
HETATM   13  C11 UNL     1      25.753  -1.047  53.166  1.00  0.00     0.132 C 
BRANCH  13  14
HETATM   14  C12 UNL     1      26.829  -0.244  52.485  1.00  0.00     0.051 A 
HETATM   15  C13 UNL     1      28.131  -0.659  53.116  1.00  0.00    -0.014 A 
HETATM   16  C14 UNL     1      28.686   0.382  53.724  1.00  0.00     0.033 A 
HETATM   17  C15 UNL     1      27.833   1.575  53.569  1.00  0.00     0.062 A 
HETATM   18  C16 UNL     1      26.791   1.191  52.865  1.00  0.00     0.020 A 
BRANCH  17  19
HETATM   19  O1  UNL     1      28.060   2.856  54.055  1.00  0.00    -0.361 OA
HETATM   20  H16 UNL     1      28.793   3.090  54.715  1.00  0.00     0.217 HD
ENDBRANCH  17  19
ENDBRANCH  13  14
ENDBRANCH  11  13
ENDBRANCH   8  11
BRANCH   1  21
HETATM   21  N1  UNL     1      21.275   1.568  50.617  1.00  0.00    -0.357 N 
HETATM   22  C4  UNL     1      20.818   2.974  50.720  1.00  0.00     0.152 C 
HETATM   23  C3  UNL     1      21.883   3.635  51.527  1.00  0.00    -0.005 C 
HETATM   24  C2  UNL     1      23.006   3.440  50.880  1.00  0.00    -0.084 C 
HETATM   25  C1  UNL     1      24.225   4.030  51.526  1.00  0.00     0.043 C 
HETATM   26  C21 UNL     1      23.150   2.703  49.597  1.00  0.00     0.058 C 
HETATM   27  C19 UNL     1      22.194   1.519  49.495  1.00  0.00     0.086 C 
HETATM   28  C20 UNL     1      21.378   1.711  48.235  1.00  0.00     0.032 C 
ENDBRANCH   1  21
TORSDOF 5
ENDMDL
