ROOT
HETATM    1  C7  UNL     1      25.811   0.186  53.626  1.00  0.00     0.154 A 
HETATM    2  N3  UNL     1      26.564   0.769  54.731  1.00  0.00    -0.257 NA
HETATM    3  C13 UNL     1      27.761   0.302  54.787  1.00  0.00     0.205 A 
HETATM    4  N4  UNL     1      28.028  -0.649  53.764  1.00  0.00    -0.347 N 
HETATM    5  C14 UNL     1      29.344  -1.279  53.683  1.00  0.00     0.157 C 
HETATM    6  C15 UNL     1      26.782  -0.711  53.037  1.00  0.00     0.042 A 
HETATM    7  C16 UNL     1      26.819  -1.572  52.003  1.00  0.00     0.042 C 
ENDROOT
BRANCH   1   8
HETATM    8  C6  UNL     1      25.481   1.372  52.798  1.00  0.00    -0.016 A 
HETATM    9  C5  UNL     1      26.241   1.511  51.629  1.00  0.00     0.011 A 
HETATM   10  C4  UNL     1      26.077   2.548  50.734  1.00  0.00     0.013 A 
HETATM   11  C3  UNL     1      25.104   3.469  51.049  1.00  0.00    -0.020 A 
HETATM   12  C18 UNL     1      24.340   3.361  52.191  1.00  0.00     0.018 A 
HETATM   13  C17 UNL     1      24.536   2.312  53.056  1.00  0.00     0.030 A 
BRANCH  11  14
HETATM   14  C2  UNL     1      24.905   4.574  50.130  1.00  0.00     0.002 C 
HETATM   15  C1  UNL     1      25.910   4.961  49.368  1.00  0.00     0.012 C 
ENDBRANCH  11  14
BRANCH  12  16
HETATM   16  S1  UNL     1      23.114   4.611  52.492  1.00  0.00    -0.061 SA
BRANCH  16  17
HETATM   17  C19 UNL     1      21.471   3.991  52.154  1.00  0.00     0.309 C 
HETATM   18  O1  UNL     1      20.475   3.536  52.657  1.00  0.00    -0.295 OA
ENDBRANCH  16  17
ENDBRANCH  12  16
ENDBRANCH   1   8
BRANCH   1  19
HETATM   19  C8  UNL     1      24.616  -0.453  54.241  1.00  0.00     0.026 A 
HETATM   20  C9  UNL     1      24.500  -1.006  55.527  1.00  0.00     0.151 A 
HETATM   21  N1  UNL     1      23.273  -1.485  55.715  1.00  0.00    -0.184 NA
HETATM   22  N2  UNL     1      22.550  -1.288  54.632  1.00  0.00    -0.278 N 
HETATM   23  C10 UNL     1      21.162  -1.674  54.458  1.00  0.00     0.179 C 
HETATM   24  C11 UNL     1      23.346  -0.663  53.725  1.00  0.00     0.037 A 
HETATM   25  C12 UNL     1      22.902  -0.268  52.375  1.00  0.00     0.070 C 
ENDBRANCH   1  19
TORSDOF 5
ENDMDL
