ROOT
HETATM    1  C1  UNL     1      18.467   3.591  51.296  1.00  0.00     0.045 C 
HETATM    2  C2  UNL     1      19.093   3.434  49.933  1.00  0.00     0.245 C 
HETATM    3  C3  UNL     1      20.475   4.038  50.002  1.00  0.00     0.203 C 
HETATM    4  O1  UNL     1      20.515   5.292  50.556  1.00  0.00    -0.385 OA
HETATM    5  C4  UNL     1      21.733   5.868  50.774  1.00  0.00     0.198 C 
HETATM    6  C5  UNL     1      22.606   5.113  51.743  1.00  0.00     0.042 C 
HETATM    7  C6  UNL     1      23.388   4.666  52.772  1.00  0.00     0.127 C 
HETATM    8  F1  UNL     1      23.872   5.160  53.936  1.00  0.00    -0.205 F 
HETATM    9  C7  UNL     1      23.783   3.231  52.651  1.00  0.00     0.038 A 
HETATM   10  C8  UNL     1      24.953   2.554  52.429  1.00  0.00     0.036 A 
HETATM   11  C9  UNL     1      24.901   1.188  52.284  1.00  0.00     0.013 A 
HETATM   12 BR1  UNL     1      26.591   0.391  51.985  1.00  0.00    -0.051 Br
HETATM   13  C10 UNL     1      23.706   0.505  52.357  1.00  0.00     0.035 A 
HETATM   14  C11 UNL     1      22.493   1.125  52.578  1.00  0.00     0.029 A 
HETATM   15  C12 UNL     1      22.572   2.517  52.726  1.00  0.00     0.091 A 
HETATM   16  C13 UNL     1      21.225   0.404  52.607  1.00  0.00     0.079 C 
HETATM   17  N1  UNL     1      20.594  -0.311  53.497  1.00  0.00    -0.241 NA
HETATM   18  C14 UNL     1      19.186  -0.541  53.294  1.00  0.00     0.228 C 
HETATM   19  N2  UNL     1      18.464  -0.106  52.302  1.00  0.00    -0.269 NA
HETATM   20  C15 UNL     1      19.118   0.173  51.004  1.00  0.00     0.208 C 
HETATM   21  C16 UNL     1      20.497   0.522  51.330  1.00  0.00    -0.002 C 
HETATM   22  C17 UNL     1      20.960   0.976  50.183  1.00  0.00     0.015 C 
HETATM   23  C18 UNL     1      20.254   1.518  48.999  1.00  0.00     0.304 C 
HETATM   24  N3  UNL     1      19.047   2.108  49.437  1.00  0.00     0.134 N 
HETATM   25  C19 UNL     1      18.321   1.170  50.242  1.00  0.00     0.481 C 
ENDROOT
BRANCH  25  26
HETATM   26  N4  UNL     1      17.510   0.394  49.281  1.00  0.00     0.115 N 
HETATM   27  H19 UNL     1      17.673  -0.612  49.409  1.00  0.00     0.315 HD
HETATM   28  H20 UNL     1      16.519   0.669  49.468  1.00  0.00     0.315 HD
ENDBRANCH  25  26
BRANCH  15  29
HETATM   29  O2  UNL     1      21.291   3.060  52.962  1.00  0.00    -0.359 OA
HETATM   30  H12 UNL     1      21.208   4.038  52.686  1.00  0.00     0.217 HD
ENDBRANCH  15  29
TORSDOF 2
ENDMDL
