ROOT
HETATM    1  C9  UNL     1      25.316  -0.676  53.854  1.00  0.00     0.178 A 
HETATM    2  N1  UNL     1      25.354  -1.038  55.148  1.00  0.00    -0.125 NA
HETATM    3  N2  UNL     1      24.144  -1.283  55.599  1.00  0.00    -0.114 NA
HETATM    4  C10 UNL     1      23.301  -1.075  54.573  1.00  0.00     0.231 A 
HETATM    5  O1  UNL     1      24.043  -0.716  53.556  1.00  0.00    -0.268 OA
ENDROOT
BRANCH   1   6
HETATM    6  C8  UNL     1      26.375  -0.294  52.864  1.00  0.00     0.094 A 
HETATM    7  C5  UNL     1      26.570   1.152  52.622  1.00  0.00     0.023 A 
HETATM    8  C6  UNL     1      27.926   0.964  53.118  1.00  0.00    -0.024 A 
HETATM    9  C7  UNL     1      27.738  -0.319  53.329  1.00  0.00    -0.017 A 
BRANCH   7  10
HETATM   10  C4  UNL     1      25.743   2.104  53.400  1.00  0.00     0.009 C 
BRANCH  10  11
HETATM   11  C3  UNL     1      24.585   2.666  52.655  1.00  0.00     0.000 C 
BRANCH  11  12
HETATM   12  C2  UNL     1      24.300   2.136  51.296  1.00  0.00    -0.005 C 
HETATM   13  C1  UNL     1      24.412   3.149  50.186  1.00  0.00     0.005 C 
ENDBRANCH  11  12
ENDBRANCH  10  11
ENDBRANCH   7  10
ENDBRANCH   1   6
BRANCH   4  14
HETATM   14  S1  UNL     1      21.519  -1.215  54.456  1.00  0.00    -0.078 SA
BRANCH  14  15
HETATM   15  C11 UNL     1      20.755   0.428  54.304  1.00  0.00     0.121 C 
BRANCH  15  16
HETATM   16  C12 UNL     1      20.782   0.931  52.905  1.00  0.00    -0.049 A 
HETATM   17  C13 UNL     1      20.542   2.278  52.681  1.00  0.00     0.008 A 
HETATM   18  C14 UNL     1      20.569   2.742  51.362  1.00  0.00     0.001 A 
HETATM   19  C15 UNL     1      20.817   1.950  50.274  1.00  0.00     0.000 A 
HETATM   20  C16 UNL     1      21.052   0.605  50.543  1.00  0.00     0.001 A 
HETATM   21  C17 UNL     1      21.039   0.084  51.836  1.00  0.00     0.008 A 
ENDBRANCH  15  16
ENDBRANCH  14  15
ENDBRANCH   4  14
TORSDOF 7
ENDMDL
