ROOT
HETATM    1  C2  UNL     1      27.396   1.398  53.237  1.00  0.00     0.107 A 
HETATM    2  C3  UNL     1      26.949   0.535  54.211  1.00  0.00     0.071 A 
HETATM    3  C4  UNL     1      25.670  -0.010  54.311  1.00  0.00     0.071 A 
HETATM    4  N1  UNL     1      25.367  -0.845  55.333  1.00  0.00    -0.259 NA
HETATM    5  C5  UNL     1      24.093  -1.348  55.393  1.00  0.00     0.142 A 
HETATM    6  C6  UNL     1      23.143  -1.002  54.428  1.00  0.00     0.089 A 
HETATM    7  C7  UNL     1      21.808  -1.548  54.524  1.00  0.00     0.103 C 
HETATM    8  N2  UNL     1      20.749  -2.001  54.607  1.00  0.00    -0.191 NA
HETATM    9  C8  UNL     1      23.445  -0.153  53.382  1.00  0.00     0.067 A 
HETATM   10  C9  UNL     1      24.729   0.317  53.367  1.00  0.00     0.023 A 
HETATM   11  C10 UNL     1      25.241   1.166  52.443  1.00  0.00     0.058 A 
HETATM   12  C11 UNL     1      26.474   1.741  52.281  1.00  0.00     0.202 A 
HETATM   13  N3  UNL     1      26.791   2.635  51.219  1.00  0.00     0.143 N 
HETATM   14  C12 UNL     1      26.611   3.547  50.171  1.00  0.00     0.286 A 
HETATM   15  O2  UNL     1      25.552   3.116  50.744  1.00  0.00     0.000 OA
HETATM   16  C13 UNL     1      25.520   4.153  49.541  1.00  0.00     0.045 A 
HETATM   17  C14 UNL     1      24.620   4.637  49.011  1.00  0.00    -0.143 C 
HETATM   18  C15 UNL     1      23.526   5.212  48.348  1.00  0.00     0.105 C 
HETATM   19  C16 UNL     1      22.218   4.454  48.610  1.00  0.00     0.091 C 
HETATM   20 BR1  UNL     1      20.783   5.134  47.543  1.00  0.00    -0.086 Br
HETATM   21  C17 UNL     1      22.389   3.020  48.427  1.00  0.00    -0.010 C 
HETATM   22  C18 UNL     1      22.376   2.202  49.453  1.00  0.00    -0.001 C 
HETATM   23  C19 UNL     1      22.221   2.247  50.892  1.00  0.00     0.017 C 
HETATM   24  C20 UNL     1      22.220   1.480  51.966  1.00  0.00     0.088 C 
HETATM   25  N4  UNL     1      22.362   0.165  52.477  1.00  0.00    -0.364 N 
HETATM   26  H7  UNL     1      27.858   2.693  51.060  1.00  0.00     0.325 HD
HETATM   27  H15 UNL     1      21.663  -0.533  52.186  1.00  0.00     0.165 HD
ENDROOT
BRANCH   1  28
HETATM   28  O1  UNL     1      28.658   1.945  53.131  1.00  0.00    -0.353 OA
HETATM   29  C1  UNL     1      29.561   2.212  54.159  1.00  0.00     0.210 C 
ENDBRANCH   1  28
TORSDOF 1
ENDMDL
