ROOT
HETATM    1  S1  UNL     1      22.517   0.634  52.833  1.00  0.00    -0.069 SA
HETATM    2  O1  UNL     1      21.498  -0.167  51.841  1.00  0.00    -0.163 OA
HETATM    3  N1  UNL     1      23.826  -0.313  53.462  1.00  0.00    -0.330 N 
HETATM    4  C3  UNL     1      25.152   0.130  53.682  1.00  0.00     0.067 C 
HETATM    5  C4  UNL     1      25.692   1.203  54.331  1.00  0.00     0.007 C 
HETATM    6  C5  UNL     1      26.876   1.982  53.760  1.00  0.00     0.042 C 
HETATM    7  C6  UNL     1      27.136   1.220  52.407  1.00  0.00     0.038 C 
HETATM    8  C7  UNL     1      27.466  -0.167  53.033  1.00  0.00     0.021 C 
HETATM    9  C8  UNL     1      26.210  -0.652  52.949  1.00  0.00     0.091 C 
HETATM   10  C10 UNL     1      25.747   1.009  51.848  1.00  0.00     0.002 C 
HETATM   11  C11 UNL     1      24.689   1.738  51.993  1.00  0.00     0.039 C 
HETATM   12  C12 UNL     1      24.346   2.966  52.644  1.00  0.00     0.096 C 
HETATM   13  N2  UNL     1      24.089   3.958  53.174  1.00  0.00    -0.192 NA
HETATM   14  C13 UNL     1      23.383   1.020  51.602  1.00  0.00     0.141 C 
HETATM   15  H4  UNL     1      22.426   1.959  53.165  1.00  0.00     0.126 HD
HETATM   16  H5  UNL     1      23.839  -1.333  53.766  1.00  0.00     0.174 HD
ENDROOT
BRANCH  14  17
HETATM   17  C14 UNL     1      22.774   1.967  50.631  1.00  0.00    -0.036 A 
HETATM   18  C15 UNL     1      23.286   2.370  49.419  1.00  0.00     0.009 A 
HETATM   19  C16 UNL     1      22.693   3.246  48.538  1.00  0.00     0.002 A 
HETATM   20  C17 UNL     1      21.471   3.785  48.876  1.00  0.00     0.019 A 
HETATM   21  C18 UNL     1      20.852   3.460  50.063  1.00  0.00     0.011 A 
HETATM   22 BR1  UNL     1      19.163   4.171  50.590  1.00  0.00    -0.051 Br
HETATM   23  C19 UNL     1      21.538   2.576  50.865  1.00  0.00     0.027 A 
ENDBRANCH  14  17
BRANCH   1  24
HETATM   24  C2  UNL     1      21.724   0.165  54.102  1.00  0.00     0.034 C 
HETATM   25  C1  UNL     1      21.852  -0.871  54.945  1.00  0.00     0.039 C 
ENDBRANCH   1  24
BRANCH   9  26
HETATM   26  O2  UNL     1      26.738  -1.662  52.165  1.00  0.00    -0.354 OA
HETATM   27  C9  UNL     1      27.755  -2.532  52.656  1.00  0.00     0.210 C 
ENDBRANCH   9  26
TORSDOF 3
ENDMDL
