ROOT
HETATM    1  C6  UNL     1      26.281   2.280  52.188  1.00  0.00     0.238 A 
HETATM    2  N2  UNL     1      27.545   1.765  52.634  1.00  0.00    -0.358 N 
HETATM    3  C7  UNL     1      27.610   0.615  53.508  1.00  0.00     0.207 A 
HETATM    4  N3  UNL     1      26.586  -0.043  53.961  1.00  0.00    -0.218 NA
HETATM    5  C8  UNL     1      25.293   0.405  53.563  1.00  0.00     0.197 A 
HETATM    6  C9  UNL     1      25.214   1.457  52.762  1.00  0.00     0.102 A 
HETATM    7  N4  UNL     1      23.962   1.999  52.294  1.00  0.00    -0.382 N 
HETATM    8  C10 UNL     1      22.606   1.565  52.179  1.00  0.00     0.161 C 
HETATM    9  C11 UNL     1      22.237   0.407  53.002  1.00  0.00    -0.005 A 
HETATM   10  C12 UNL     1      20.870   0.231  52.814  1.00  0.00     0.030 A 
HETATM   11  C13 UNL     1      20.205  -0.808  53.472  1.00  0.00     0.011 A 
HETATM   12 BR2  UNL     1      18.329  -1.106  53.258  1.00  0.00    -0.051 Br
HETATM   13  C14 UNL     1      20.922  -1.637  54.296  1.00  0.00     0.022 A 
HETATM   14  C15 UNL     1      22.278  -1.469  54.488  1.00  0.00     0.039 A 
HETATM   15  C16 UNL     1      22.928  -0.444  53.837  1.00  0.00     0.086 A 
HETATM   16  O1  UNL     1      24.288  -0.379  54.111  1.00  0.00    -0.290 OA
HETATM   17  H6  UNL     1      28.522   2.070  52.444  1.00  0.00     0.162 HD
HETATM   18  H8  UNL     1      24.011   2.995  51.922  1.00  0.00     0.160 HD
ENDROOT
BRANCH   1  19
HETATM   19  N1  UNL     1      26.158   2.533  50.792  1.00  0.00    -0.364 N 
HETATM   20  H4  UNL     1      26.014   1.679  50.210  1.00  0.00     0.162 HD
BRANCH  19  21
HETATM   21  C5  UNL     1      26.213   3.799  50.154  1.00  0.00     0.031 A 
HETATM   22  C4  UNL     1      27.114   4.138  49.177  1.00  0.00     0.029 A 
HETATM   23  C3  UNL     1      27.161   5.371  48.556  1.00  0.00     0.004 A 
HETATM   24  C2  UNL     1      26.242   6.329  48.944  1.00  0.00     0.019 A 
HETATM   25  C1  UNL     1      25.316   6.037  49.923  1.00  0.00     0.013 A 
HETATM   26 BR1  UNL     1      24.048   7.366  50.455  1.00  0.00    -0.051 Br
HETATM   27  C17 UNL     1      25.321   4.792  50.501  1.00  0.00     0.048 A 
ENDBRANCH  19  21
ENDBRANCH   1  19
TORSDOF 2
ENDMDL
