ROOT
HETATM    1  C2  UNL     1      25.620   2.086  53.089  1.00  0.00     0.079 A 
HETATM    2  C3  UNL     1      24.267   1.761  53.120  1.00  0.00     0.036 A 
HETATM    3  C4  UNL     1      23.538   1.923  51.964  1.00  0.00     0.045 A 
HETATM    4  C5  UNL     1      24.104   2.394  50.777  1.00  0.00     0.126 A 
HETATM    5  F1  UNL     1      23.436   2.569  49.615  1.00  0.00    -0.205 F 
HETATM    6  C6  UNL     1      25.438   2.720  50.716  1.00  0.00     0.026 A 
HETATM    7  C15 UNL     1      26.136   2.538  51.919  1.00  0.00     0.153 A 
HETATM    8  F2  UNL     1      27.467   2.819  52.001  1.00  0.00    -0.203 F 
ENDROOT
BRANCH   6   9
HETATM    9  C7  UNL     1      26.234   3.220  49.600  1.00  0.00     0.086 C 
BRANCH   9  10
HETATM   10  C8  UNL     1      25.958   4.655  49.353  1.00  0.00    -0.026 C 
HETATM   11  C9  UNL     1      25.086   5.323  50.246  1.00  0.00     0.092 C 
HETATM   12  N2  UNL     1      26.093   6.554  50.358  1.00  0.00    -0.387 N 
HETATM   13  C10 UNL     1      26.759   7.323  49.346  1.00  0.00     0.131 C 
HETATM   14  H10 UNL     1      26.292   6.961  51.353  1.00  0.00     0.159 HD
HETATM   15  C11 UNL     1      27.824   6.948  48.330  1.00  0.00     0.043 C 
HETATM   16  C14 UNL     1      25.666   7.169  48.301  1.00  0.00     0.017 C 
HETATM   17  C12 UNL     1      27.649   5.590  48.436  1.00  0.00     0.117 C 
HETATM   18  C13 UNL     1      26.103   5.904  48.451  1.00  0.00     0.007 C 
BRANCH  17  19
HETATM   19  O2  UNL     1      28.876   4.884  48.458  1.00  0.00    -0.179 OA
BRANCH  19  20
HETATM   20  O3  UNL     1      30.014   5.581  48.637  1.00  0.00    -0.114 OA
HETATM   21 CL1  UNL     1      31.232   5.010  47.588  1.00  0.00     0.100 Cl
ENDBRANCH  19  20
ENDBRANCH  17  19
ENDBRANCH   9  10
ENDBRANCH   6   9
BRANCH   1  22
HETATM   22  N1  UNL     1      26.385   1.916  54.296  1.00  0.00    -0.303 N 
HETATM   23  H4  UNL     1      26.639   2.641  54.996  1.00  0.00     0.176 HD
BRANCH  22  24
HETATM   24  S1  UNL     1      26.838   0.225  54.423  1.00  0.00     0.110 S 
HETATM   25  C1  UNL     1      28.570   0.125  54.845  1.00  0.00     0.152 C 
HETATM   26  O1  UNL     1      26.029  -0.494  55.485  1.00  0.00    -0.236 OA
ENDBRANCH  22  24
ENDBRANCH   1  22
TORSDOF 6
ENDMDL
