ROOT
HETATM    1  C2  UNL     1      19.747  -0.102  52.352  1.00  0.00     0.103 C 
HETATM    2  C3  UNL     1      19.958  -0.601  53.563  1.00  0.00     0.068 C 
HETATM    3  C4  UNL     1      21.380  -0.607  53.885  1.00  0.00     0.052 C 
HETATM    4  N1  UNL     1      21.715  -1.275  54.960  1.00  0.00    -0.245 NA
HETATM    5  C5  UNL     1      23.052  -1.420  55.409  1.00  0.00     0.233 C 
HETATM    6  N2  UNL     1      24.016  -0.903  54.725  1.00  0.00    -0.244 NA
HETATM    7  C6  UNL     1      23.750  -0.203  53.517  1.00  0.00     0.067 C 
HETATM    8  C14 UNL     1      22.408   0.167  53.189  1.00  0.00     0.117 C 
HETATM    9  C15 UNL     1      22.032   0.585  51.851  1.00  0.00     0.030 C 
HETATM   10  C16 UNL     1      20.754   0.470  51.467  1.00  0.00     0.098 C 
ENDROOT
BRANCH   7  11
HETATM   11  C7  UNL     1      24.797   0.060  52.768  1.00  0.00     0.145 C 
BRANCH  11  12
HETATM   12  N3  UNL     1      25.868   0.891  53.232  1.00  0.00    -0.257 NA
HETATM   13  C8  UNL     1      27.087   0.462  53.364  1.00  0.00     0.084 A 
HETATM   14  C9  UNL     1      28.150   1.366  53.848  1.00  0.00     0.034 A 
HETATM   15  C13 UNL     1      27.496  -0.906  53.055  1.00  0.00     0.076 A 
HETATM   16  C10 UNL     1      29.397   0.926  53.983  1.00  0.00     0.002 A 
HETATM   17  C11 UNL     1      29.799  -0.440  53.672  1.00  0.00     0.002 A 
HETATM   18  C12 UNL     1      28.904  -1.306  53.235  1.00  0.00     0.033 A 
HETATM   19  N4  UNL     1      26.574  -1.699  52.632  1.00  0.00    -0.298 NA
HETATM   20  H11 UNL     1      26.831  -2.676  52.405  1.00  0.00     0.187 HD
ENDBRANCH  11  12
ENDBRANCH   7  11
BRANCH  10  21
HETATM   21  O2  UNL     1      20.525   0.941  50.181  1.00  0.00    -0.353 OA
HETATM   22  C17 UNL     1      21.533   1.007  49.218  1.00  0.00     0.210 C 
ENDBRANCH  10  21
BRANCH   1  23
HETATM   23  O1  UNL     1      18.479  -0.020  51.781  1.00  0.00    -0.353 OA
HETATM   24  C1  UNL     1      17.475  -0.833  52.385  1.00  0.00     0.210 C 
ENDBRANCH   1  23
TORSDOF 4
ENDMDL
