ROOT
HETATM    1  C6  UNL     1      21.183   0.352  51.754  1.00  0.00     0.046 A 
HETATM    2  C7  UNL     1      22.476   0.205  52.213  1.00  0.00     0.046 A 
HETATM    3  C8  UNL     1      22.846  -0.393  53.406  1.00  0.00     0.042 A 
HETATM    4  C9  UNL     1      24.145  -0.524  53.836  1.00  0.00     0.142 A 
HETATM    5  N2  UNL     1      24.332  -1.128  55.014  1.00  0.00    -0.224 NA
HETATM    6  C16 UNL     1      23.281  -1.568  55.707  1.00  0.00     0.236 A 
HETATM    7  N3  UNL     1      21.983  -1.451  55.303  1.00  0.00    -0.240 NA
HETATM    8  C17 UNL     1      21.773  -0.846  54.121  1.00  0.00     0.089 A 
HETATM    9  C18 UNL     1      20.462  -0.734  53.724  1.00  0.00     0.149 A 
HETATM   10  N4  UNL     1      20.183  -0.137  52.548  1.00  0.00    -0.262 NA
ENDROOT
BRANCH   4  11
HETATM   11  N1  UNL     1      25.186  -0.028  53.049  1.00  0.00    -0.340 N 
HETATM   12  H9  UNL     1      25.005   0.510  52.178  1.00  0.00     0.167 HD
BRANCH  11  13
HETATM   13  C10 UNL     1      26.588  -0.131  53.231  1.00  0.00     0.035 A 
HETATM   14  C11 UNL     1      27.287  -1.272  52.913  1.00  0.00     0.032 A 
HETATM   15  C12 UNL     1      28.652  -1.418  53.082  1.00  0.00     0.046 A 
HETATM   16  C13 UNL     1      29.393  -0.393  53.594  1.00  0.00     0.138 A 
HETATM   17  F1  UNL     1      30.732  -0.449  53.793  1.00  0.00    -0.204 F 
HETATM   18  C14 UNL     1      28.745   0.761  53.925  1.00  0.00     0.074 A 
HETATM   19 CL1  UNL     1      29.638   2.108  54.582  1.00  0.00    -0.081 Cl
HETATM   20  C15 UNL     1      27.396   0.851  53.737  1.00  0.00     0.056 A 
ENDBRANCH  11  13
ENDBRANCH   4  11
BRANCH   1  21
HETATM   21  C5  UNL     1      20.868   1.005  50.461  1.00  0.00     0.153 C 
BRANCH  21  22
HETATM   22  C4  UNL     1      22.034   1.806  50.083  1.00  0.00    -0.101 C 
HETATM   23  C3  UNL     1      22.999   2.466  49.790  1.00  0.00    -0.107 C 
BRANCH  23  24
HETATM   24  C2  UNL     1      24.188   3.289  49.454  1.00  0.00     0.089 C 
HETATM   25  C1  UNL     1      25.338   3.012  50.405  1.00  0.00     0.018 C 
ENDBRANCH  23  24
ENDBRANCH  21  22
ENDBRANCH   1  21
TORSDOF 5
ENDMDL
