ROOT
HETATM    1  C3  UNL     1      20.533   2.956  51.505  1.00  0.00     0.013 C 
HETATM    2  C4  UNL     1      21.143   2.503  52.596  1.00  0.00     0.006 C 
HETATM    3  C5  UNL     1      21.557   1.318  52.580  1.00  0.00     0.059 A 
HETATM    4  C6  UNL     1      21.388   0.328  51.592  1.00  0.00     0.012 A 
HETATM    5  C7  UNL     1      22.226  -0.313  52.347  1.00  0.00     0.058 A 
HETATM    6  S1  UNL     1      22.955   0.260  53.855  1.00  0.00    -0.163 SA
HETATM    7  C8  UNL     1      24.472  -0.715  54.174  1.00  0.00     0.085 C 
HETATM    8  C9  UNL     1      25.465  -0.530  53.056  1.00  0.00     0.056 C 
HETATM    9  C14 UNL     1      25.410   0.676  52.245  1.00  0.00     0.016 C 
HETATM   10  C15 UNL     1      26.291   1.597  51.742  1.00  0.00    -0.003 C 
HETATM   11  C16 UNL     1      25.593   2.653  50.903  1.00  0.00     0.034 C 
HETATM   12  C17 UNL     1      24.438   3.018  50.559  1.00  0.00     0.226 A 
HETATM   13  C18 UNL     1      24.449   4.089  49.685  1.00  0.00     0.032 C 
HETATM   14  N1  UNL     1      24.459   5.032  48.894  1.00  0.00    -0.098 N 
HETATM   15  C19 UNL     1      22.997   3.060  50.735  1.00  0.00     0.174 A 
HETATM   16  O3  UNL     1      23.686   2.536  51.603  1.00  0.00    -0.297 OA
HETATM   17  N2  UNL     1      21.632   3.195  50.701  1.00  0.00    -0.340 N 
HETATM   18  H20 UNL     1      22.056   3.450  49.818  1.00  0.00     0.167 HD
ENDROOT
BRANCH   1  19
HETATM   19  C2  UNL     1      19.447   3.195  50.576  1.00  0.00    -0.001 C 
HETATM   20  C1  UNL     1      18.899   4.321  49.944  1.00  0.00     0.033 C 
ENDBRANCH   1  19
BRANCH   8  21
HETATM   21  C10 UNL     1      26.816  -1.008  53.495  1.00  0.00     0.072 C 
BRANCH  21  22
HETATM   22  C11 UNL     1      27.352  -2.001  52.912  1.00  0.00     0.163 C 
BRANCH  22  23
HETATM   23  O1  UNL     1      28.027  -3.182  52.627  1.00  0.00    -0.370 OA
HETATM   24  H11 UNL     1      29.026  -3.103  52.256  1.00  0.00     0.216 HD
ENDBRANCH  22  23
ENDBRANCH  21  22
BRANCH  21  25
HETATM   25  O2  UNL     1      27.283  -0.240  54.534  1.00  0.00    -0.354 OA
BRANCH  25  26
HETATM   26  C12 UNL     1      28.698  -0.045  54.673  1.00  0.00     0.171 C 
HETATM   27  C13 UNL     1      29.073   1.279  54.172  1.00  0.00     0.034 C 
ENDBRANCH  25  26
ENDBRANCH  21  25
ENDBRANCH   8  21
TORSDOF 6
ENDMDL
