ROOT
HETATM    1  C10 UNL     1      25.964   2.665  50.859  1.00  0.00     0.282 C 
HETATM    2  N1  UNL     1      26.760   1.913  51.735  1.00  0.00    -0.266 NA
HETATM    3  C11 UNL     1      27.630   2.199  52.585  1.00  0.00     0.143 C 
HETATM    4  C12 UNL     1      27.982   0.851  53.074  1.00  0.00     0.078 A 
HETATM    5  N2  UNL     1      29.216   0.481  53.276  1.00  0.00    -0.243 NA
HETATM    6  C13 UNL     1      29.234  -0.858  53.741  1.00  0.00     0.228 A 
HETATM    7  N3  UNL     1      28.045  -1.325  53.832  1.00  0.00    -0.271 NA
HETATM    8  C14 UNL     1      27.109  -0.321  53.429  1.00  0.00     0.169 A 
HETATM    9  C15 UNL     1      26.167   0.100  54.523  1.00  0.00     0.107 C 
HETATM   10  C16 UNL     1      24.757  -0.215  54.281  1.00  0.00     0.092 A 
HETATM   11  N4  UNL     1      24.010  -0.928  54.897  1.00  0.00    -0.422 NA
HETATM   12  C17 UNL     1      23.088  -1.639  55.428  1.00  0.00     0.182 A 
HETATM   13  C18 UNL     1      22.101  -1.260  54.472  1.00  0.00     0.032 A 
HETATM   14  C19 UNL     1      22.460  -0.363  53.435  1.00  0.00     0.012 A 
HETATM   15  C20 UNL     1      23.778   0.136  53.369  1.00  0.00    -0.020 A 
HETATM   16  C21 UNL     1      24.056   1.083  52.232  1.00  0.00     0.061 C 
HETATM   17  C22 UNL     1      24.427   2.453  52.643  1.00  0.00     0.129 C 
HETATM   18  N5  UNL     1      24.744   3.241  51.451  1.00  0.00    -0.361 N 
ENDROOT
BRANCH   1  19
HETATM   19  C9  UNL     1      26.650   3.572  49.946  1.00  0.00     0.193 C 
HETATM   20  O1  UNL     1      26.934   2.542  49.272  1.00  0.00    -0.289 OA
BRANCH  19  21
HETATM   21  C8  UNL     1      27.276   4.585  49.150  1.00  0.00     0.051 C 
HETATM   22  C7  UNL     1      26.589   5.707  49.056  1.00  0.00    -0.014 C 
BRANCH  22  23
HETATM   23  C6  UNL     1      26.947   6.919  48.322  1.00  0.00     0.036 C 
HETATM   24  C2  UNL     1      27.057   8.149  49.138  1.00  0.00    -0.082 C 
HETATM   25  C1  UNL     1      26.146   8.715  49.951  1.00  0.00     0.015 C 
HETATM   26  C3  UNL     1      28.418   8.759  48.953  1.00  0.00     0.034 C 
HETATM   27  C4  UNL     1      28.850   8.207  47.632  1.00  0.00     0.005 C 
HETATM   28  C5  UNL     1      28.342   6.772  47.710  1.00  0.00     0.013 C 
ENDBRANCH  22  23
ENDBRANCH  19  21
ENDBRANCH   1  19
BRANCH  18  29
HETATM   29  C23 UNL     1      24.099   4.351  50.860  1.00  0.00     0.083 C 
HETATM   30  C24 UNL     1      23.075   5.166  50.733  1.00  0.00    -0.014 C 
HETATM   31  C25 UNL     1      21.711   5.495  51.207  1.00  0.00     0.037 C 
ENDBRANCH  18  29
TORSDOF 4
ENDMDL
