ROOT
HETATM    1  C6  UNL     1      24.238   1.531  52.865  1.00  0.00     0.045 A 
HETATM    2  C7  UNL     1      23.027   0.879  52.923  1.00  0.00     0.049 A 
HETATM    3  C8  UNL     1      22.813  -0.314  53.569  1.00  0.00     0.122 A 
HETATM    4  N2  UNL     1      23.863  -0.877  54.186  1.00  0.00    -0.236 NA
HETATM    5  C9  UNL     1      25.079  -0.320  54.186  1.00  0.00     0.183 A 
HETATM    6  O1  UNL     1      26.219  -0.679  54.705  1.00  0.00    -0.290 OA
HETATM    7  C10 UNL     1      27.166   0.189  54.449  1.00  0.00     0.089 A 
HETATM    8  C11 UNL     1      28.492   0.238  54.779  1.00  0.00     0.038 A 
HETATM    9  C12 UNL     1      29.271   1.293  54.367  1.00  0.00     0.003 A 
HETATM   10  C13 UNL     1      28.671   2.305  53.608  1.00  0.00     0.001 A 
HETATM   11  C14 UNL     1      27.332   2.227  53.291  1.00  0.00     0.015 A 
HETATM   12  C15 UNL     1      26.566   1.177  53.704  1.00  0.00     0.015 A 
HETATM   13  C16 UNL     1      25.242   0.878  53.522  1.00  0.00     0.057 A 
ENDROOT
BRANCH   1  14
HETATM   14  N1  UNL     1      24.328   2.755  52.168  1.00  0.00    -0.385 N 
HETATM   15  H4  UNL     1      24.415   3.748  52.392  1.00  0.00     0.160 HD
BRANCH  14  16
HETATM   16  C5  UNL     1      24.299   2.700  50.732  1.00  0.00     0.158 C 
BRANCH  16  17
HETATM   17  C4  UNL     1      25.251   3.574  50.041  1.00  0.00    -0.038 C 
HETATM   18  C3  UNL     1      24.810   4.948  49.726  1.00  0.00     0.023 C 
HETATM   19  C2  UNL     1      25.745   5.488  48.962  1.00  0.00    -0.002 C 
HETATM   20  C1  UNL     1      26.871   4.793  48.960  1.00  0.00     0.045 C 
HETATM   21 CL1  UNL     1      28.505   5.120  48.424  1.00  0.00    -0.083 Cl
HETATM   22  C17 UNL     1      26.504   3.508  49.566  1.00  0.00     0.033 C 
ENDBRANCH  16  17
ENDBRANCH  14  16
ENDBRANCH   1  14
TORSDOF 3
ENDMDL
