ROOT
HETATM    1  N1  UNL     1      27.957  -3.135  52.862  1.00  0.00    -0.192 NA
HETATM    2  C1  UNL     1      27.392  -2.261  52.393  1.00  0.00     0.088 C 
HETATM    3  C2  UNL     1      26.709  -1.184  51.795  1.00  0.00     0.106 C 
HETATM    4  C3  UNL     1      27.009   0.028  52.119  1.00  0.00    -0.012 C 
HETATM    5  C4  UNL     1      26.388   1.368  51.583  1.00  0.00     0.029 C 
HETATM    6  C5  UNL     1      26.382   2.364  52.557  1.00  0.00     0.084 C 
HETATM    7  N2  UNL     1      27.178   2.414  53.826  1.00  0.00    -0.388 N 
HETATM    8  C6  UNL     1      28.370   1.794  54.261  1.00  0.00     0.131 C 
HETATM    9  C7  UNL     1      28.328   0.645  55.259  1.00  0.00     0.039 C 
HETATM   10  C8  UNL     1      27.445  -0.060  54.574  1.00  0.00     0.078 C 
HETATM   11  C16 UNL     1      28.041   0.333  53.239  1.00  0.00     0.006 C 
HETATM   12  C17 UNL     1      29.130   1.095  53.207  1.00  0.00     0.017 C 
HETATM   13  H4  UNL     1      26.639   3.101  54.438  1.00  0.00     0.159 HD
ENDROOT
BRANCH  10  14
HETATM   14  O1  UNL     1      26.365  -0.882  54.880  1.00  0.00    -0.346 OA
BRANCH  14  15
HETATM   15  C9  UNL     1      25.276  -0.381  55.654  1.00  0.00     0.214 C 
BRANCH  15  16
HETATM   16  C10 UNL     1      24.032  -0.649  54.934  1.00  0.00    -0.034 A 
HETATM   17  C11 UNL     1      23.807  -0.102  53.690  1.00  0.00     0.009 A 
HETATM   18  C12 UNL     1      22.659  -0.320  52.969  1.00  0.00     0.001 A 
HETATM   19  C13 UNL     1      21.650  -1.114  53.461  1.00  0.00     0.000 A 
HETATM   20  C14 UNL     1      21.850  -1.675  54.710  1.00  0.00     0.001 A 
HETATM   21  C15 UNL     1      23.010  -1.449  55.427  1.00  0.00     0.009 A 
ENDBRANCH  15  16
ENDBRANCH  14  15
ENDBRANCH  10  14
TORSDOF 3
ENDMDL
