ROOT
HETATM    1  C7  UNL     1      25.577   1.166  53.782  1.00  0.00     0.297 C 
HETATM    2  O3  UNL     1      25.590   2.515  53.368  1.00  0.00    -0.333 OA
HETATM    3  C8  UNL     1      26.059   2.455  52.034  1.00  0.00     0.342 C 
HETATM    4  O4  UNL     1      25.473   1.383  51.367  1.00  0.00    -0.355 OA
HETATM    5  C9  UNL     1      24.222   1.070  51.877  1.00  0.00     0.177 C 
HETATM    6  C10 UNL     1      23.317   2.234  51.661  1.00  0.00     0.166 C 
HETATM    7  N1  UNL     1      22.752   2.351  50.349  1.00  0.00    -0.348 N 
HETATM    8  C11 UNL     1      23.437   3.230  49.439  1.00  0.00     0.088 A 
HETATM    9  C12 UNL     1      22.918   3.347  48.232  1.00  0.00    -0.006 A 
HETATM   10  C13 UNL     1      21.716   2.696  47.663  1.00  0.00     0.058 A 
HETATM   11  C14 UNL     1      21.054   1.805  48.639  1.00  0.00     0.016 A 
HETATM   12  C15 UNL     1      21.594   1.713  49.826  1.00  0.00     0.087 A 
HETATM   13  C16 UNL     1      21.051   0.895  50.810  1.00  0.00    -0.026 C 
HETATM   14  C17 UNL     1      20.625   0.228  51.625  1.00  0.00     0.018 C 
HETATM   15  N2  UNL     1      20.137  -0.568  52.608  1.00  0.00    -0.309 N 
HETATM   16  C18 UNL     1      21.223  -0.210  53.481  1.00  0.00     0.214 C 
HETATM   17  N3  UNL     1      22.466  -0.508  53.251  1.00  0.00    -0.255 NA
HETATM   18  C19 UNL     1      23.547  -0.171  54.078  1.00  0.00     0.128 C 
HETATM   19  C20 UNL     1      24.298   0.588  53.273  1.00  0.00     0.022 C 
HETATM   20  H21 UNL     1      19.288  -1.133  52.537  1.00  0.00     0.177 HD
ENDROOT
BRANCH   1  21
HETATM   21  O2  UNL     1      26.616   0.533  53.173  1.00  0.00    -0.347 OA
BRANCH  21  22
HETATM   22  C6  UNL     1      27.284  -0.426  53.873  1.00  0.00     0.157 C 
HETATM   23  C2  UNL     1      27.788  -1.574  53.092  1.00  0.00    -0.037 C 
HETATM   24  C1  UNL     1      26.970  -2.091  52.221  1.00  0.00     0.019 C 
HETATM   25  C3  UNL     1      29.180  -2.044  53.360  1.00  0.00     0.203 C 
HETATM   26  O1  UNL     1      30.072  -1.002  53.191  1.00  0.00    -0.387 OA
HETATM   27  C4  UNL     1      29.612   0.209  53.655  1.00  0.00     0.171 C 
HETATM   28  C5  UNL     1      28.476   0.102  54.641  1.00  0.00     0.063 C 
ENDBRANCH  21  22
ENDBRANCH   1  21
TORSDOF 2
ENDMDL
