ROOT
HETATM    1  C2  UNL     1      24.916   1.554  52.760  1.00  0.00     0.011 A 
HETATM    2  C3  UNL     1      24.069   0.951  51.951  1.00  0.00     0.014 A 
HETATM    3  C4  UNL     1      22.854   1.406  51.303  1.00  0.00     0.018 A 
HETATM    4  C5  UNL     1      22.475   2.663  51.538  1.00  0.00     0.086 A 
HETATM    5  N1  UNL     1      23.331   3.372  52.404  1.00  0.00    -0.380 N 
HETATM    6  C15 UNL     1      24.530   2.975  53.010  1.00  0.00     0.165 A 
ENDROOT
BRANCH   5   7
HETATM    7  C6  UNL     1      22.857   4.718  52.698  1.00  0.00     0.181 C 
BRANCH   7   8
HETATM    8  C7  UNL     1      23.393   5.703  51.728  1.00  0.00     0.055 A 
HETATM    9  C8  UNL     1      24.275   6.121  50.782  1.00  0.00     0.067 A 
HETATM   10  N2  UNL     1      23.233   7.007  51.158  1.00  0.00    -0.354 N 
HETATM   11  H11 UNL     1      22.696   7.901  51.116  1.00  0.00     0.166 HD
BRANCH   9  12
HETATM   12  C9  UNL     1      25.455   5.803  49.987  1.00  0.00    -0.007 A 
HETATM   13  C10 UNL     1      26.217   6.714  49.289  1.00  0.00     0.014 A 
HETATM   14  C11 UNL     1      27.336   6.283  48.568  1.00  0.00     0.001 A 
HETATM   15  C12 UNL     1      27.682   4.949  48.551  1.00  0.00     0.000 A 
HETATM   16  C13 UNL     1      26.955   3.968  49.236  1.00  0.00     0.001 A 
HETATM   17  C14 UNL     1      25.856   4.475  49.930  1.00  0.00     0.014 A 
ENDBRANCH   9  12
ENDBRANCH   7   8
ENDBRANCH   5   7
BRANCH   1  18
HETATM   18  C1  UNL     1      26.112   1.108  53.404  1.00  0.00     0.190 C 
HETATM   19  O1  UNL     1      26.440   1.927  54.344  1.00  0.00    -0.287 OA
BRANCH  18  20
HETATM   20  C16 UNL     1      27.050   0.020  53.308  1.00  0.00     0.015 A 
HETATM   21  C17 UNL     1      26.855  -1.239  52.800  1.00  0.00     0.015 A 
HETATM   22  C18 UNL     1      27.728  -2.288  52.698  1.00  0.00     0.001 A 
HETATM   23  C19 UNL     1      28.985  -2.013  53.187  1.00  0.00     0.000 A 
HETATM   24  C20 UNL     1      29.327  -0.794  53.728  1.00  0.00     0.001 A 
HETATM   25  C21 UNL     1      28.352   0.151  53.761  1.00  0.00     0.015 A 
ENDBRANCH  18  20
ENDBRANCH   1  18
TORSDOF 5
ENDMDL
