ROOT
HETATM    1  C1  UNL     1      28.905   5.666  48.137  1.00  0.00     0.018 C 
HETATM    2  C2  UNL     1      27.783   5.631  48.577  1.00  0.00    -0.078 C 
HETATM    3  C3  UNL     1      26.442   5.594  49.086  1.00  0.00     0.017 A 
HETATM    4  C4  UNL     1      25.973   6.715  49.735  1.00  0.00     0.020 A 
HETATM    5  C5  UNL     1      24.691   6.704  50.233  1.00  0.00     0.002 A 
HETATM    6  C6  UNL     1      23.929   5.574  50.061  1.00  0.00     0.014 A 
HETATM    7  C7  UNL     1      24.325   4.412  49.422  1.00  0.00    -0.005 A 
HETATM    8  C20 UNL     1      25.619   4.523  48.964  1.00  0.00     0.034 A 
ENDROOT
BRANCH   7   9
HETATM    9  C8  UNL     1      23.451   3.255  49.403  1.00  0.00     0.079 C 
HETATM   10  N1  UNL     1      23.033   2.943  48.200  1.00  0.00    -0.241 NA
HETATM   11  C9  UNL     1      22.147   1.855  48.049  1.00  0.00     0.227 C 
HETATM   12  N2  UNL     1      21.675   1.129  48.972  1.00  0.00    -0.278 NA
HETATM   13  C10 UNL     1      22.006   1.353  50.396  1.00  0.00     0.194 C 
HETATM   14  C11 UNL     1      23.153   2.277  50.444  1.00  0.00     0.028 C 
HETATM   15  C12 UNL     1      24.135   2.167  51.365  1.00  0.00     0.114 C 
HETATM   16  O1  UNL     1      25.369   2.777  51.508  1.00  0.00    -0.345 OA
HETATM   17  C15 UNL     1      24.215   1.343  52.565  1.00  0.00     0.124 C 
HETATM   18  C13 UNL     1      26.590   2.092  51.709  1.00  0.00     0.202 C 
HETATM   19  C14 UNL     1      26.584   1.372  53.040  1.00  0.00     0.202 C 
HETATM   20  O2  UNL     1      25.247   1.274  53.468  1.00  0.00    -0.344 OA
HETATM   21  C16 UNL     1      23.165   0.566  52.846  1.00  0.00     0.174 C 
BRANCH  21  22
HETATM   22  O3  UNL     1      23.070  -0.270  53.929  1.00  0.00    -0.354 OA
BRANCH  22  23
HETATM   23  C17 UNL     1      21.941  -0.559  54.707  1.00  0.00     0.151 C 
HETATM   24  C18 UNL     1      21.657  -2.030  54.658  1.00  0.00     0.042 C 
BRANCH  23  25
HETATM   25  C19 UNL     1      20.720   0.246  54.396  1.00  0.00     0.298 C 
BRANCH  25  26
HETATM   26  N3  UNL     1      19.649  -0.669  53.945  1.00  0.00     0.080 N 
HETATM   27  H19 UNL     1      19.981  -1.261  53.142  1.00  0.00     0.312 HD
HETATM   28  H20 UNL     1      18.851  -0.114  53.575  1.00  0.00     0.312 HD
ENDBRANCH  25  26
ENDBRANCH  23  25
ENDBRANCH  22  23
ENDBRANCH  21  22
ENDBRANCH   7   9
TORSDOF 5
ENDMDL
