ROOT
HETATM    1  C6  UNL     1      22.473   2.231  49.723  1.00  0.00     0.058 C 
HETATM    2  N1  UNL     1      22.103   1.459  48.763  1.00  0.00    -0.245 NA
HETATM    3  C7  UNL     1      21.881   1.806  47.419  1.00  0.00     0.233 C 
HETATM    4  N2  UNL     1      22.068   3.020  47.030  1.00  0.00    -0.246 NA
HETATM    5  C8  UNL     1      22.511   3.964  48.004  1.00  0.00     0.050 C 
HETATM    6  C9  UNL     1      22.883   5.183  47.574  1.00  0.00     0.066 C 
HETATM    7  C10 UNL     1      23.345   6.201  48.511  1.00  0.00     0.086 C 
HETATM    8  C11 UNL     1      22.532   7.274  48.635  1.00  0.00     0.120 C 
HETATM    9  N3  UNL     1      21.559   7.333  49.709  1.00  0.00    -0.396 N 
HETATM   10  C12 UNL     1      21.290   6.875  51.084  1.00  0.00     0.133 C 
HETATM   11  C13 UNL     1      21.966   5.490  51.232  1.00  0.00     0.110 C 
HETATM   12  C14 UNL     1      23.456   5.708  51.328  1.00  0.00     0.158 C 
HETATM   13  O1  UNL     1      23.918   5.677  52.479  1.00  0.00    -0.295 OA
HETATM   14  C15 UNL     1      24.777   5.968  50.662  1.00  0.00     0.254 C 
HETATM   15  O2  UNL     1      24.559   6.070  49.237  1.00  0.00    -0.343 OA
HETATM   16  C16 UNL     1      21.541   4.532  50.190  1.00  0.00     0.251 C 
HETATM   17  C21 UNL     1      22.598   3.695  49.512  1.00  0.00     0.125 C 
HETATM   18  H9  UNL     1      20.746   7.917  49.390  1.00  0.00     0.158 HD
ENDROOT
BRANCH   1  19
HETATM   19  C5  UNL     1      22.617   1.496  50.967  1.00  0.00    -0.011 A 
HETATM   20  C4  UNL     1      21.716   0.516  51.366  1.00  0.00     0.014 A 
HETATM   21  C3  UNL     1      21.822  -0.247  52.506  1.00  0.00     0.007 A 
HETATM   22  C2  UNL     1      22.899  -0.033  53.325  1.00  0.00    -0.062 A 
HETATM   23  C1  UNL     1      23.026  -0.849  54.559  1.00  0.00     0.048 C 
HETATM   24  C23 UNL     1      23.851   0.910  53.026  1.00  0.00     0.007 A 
HETATM   25  C22 UNL     1      23.655   1.619  51.867  1.00  0.00     0.014 A 
ENDBRANCH   1  19
BRANCH  16  26
HETATM   26  N4  UNL     1      20.277   3.882  50.323  1.00  0.00     0.099 N 
HETATM   27  C17 UNL     1      19.247   4.459  49.477  1.00  0.00     0.299 C 
HETATM   28  C18 UNL     1      17.986   4.676  50.255  1.00  0.00     0.198 C 
HETATM   29  O3  UNL     1      17.553   3.591  50.974  1.00  0.00    -0.388 OA
HETATM   30  C19 UNL     1      18.563   2.835  51.556  1.00  0.00     0.198 C 
HETATM   31  C20 UNL     1      19.762   3.794  51.662  1.00  0.00     0.299 C 
ENDBRANCH  16  26
TORSDOF 2
ENDMDL
