ROOT
HETATM    1  C2  UNL     1      24.693   2.677  51.931  1.00  0.00     0.070 C 
HETATM    2  C3  UNL     1      25.728   2.145  52.536  1.00  0.00     0.011 C 
ENDROOT
BRANCH   1   3
HETATM    3  O1  UNL     1      24.872   3.280  50.702  1.00  0.00    -0.359 OA
HETATM    4  C1  UNL     1      24.545   4.626  50.442  1.00  0.00     0.209 C 
ENDBRANCH   1   3
BRANCH   1   5
HETATM    5  C10 UNL     1      23.326   2.653  52.533  1.00  0.00     0.334 C 
BRANCH   5   6
HETATM    6  N2  UNL     1      22.522   1.640  51.895  1.00  0.00     0.094 N 
HETATM    7  H13 UNL     1      23.155   1.133  51.232  1.00  0.00     0.316 HD
BRANCH   6   8
HETATM    8  C11 UNL     1      22.029   0.719  52.853  1.00  0.00     0.221 C 
HETATM    9  C12 UNL     1      22.965  -0.409  53.198  1.00  0.00     0.035 C 
HETATM   10  C13 UNL     1      22.455  -0.929  54.552  1.00  0.00     0.002 C 
HETATM   11  C14 UNL     1      21.122  -1.553  54.309  1.00  0.00     0.000 C 
HETATM   12  C15 UNL     1      20.142  -0.595  53.668  1.00  0.00     0.002 C 
HETATM   13  C16 UNL     1      20.717   0.076  52.450  1.00  0.00     0.035 C 
ENDBRANCH   6   8
ENDBRANCH   5   6
ENDBRANCH   1   5
BRANCH   2  14
HETATM   14  C4  UNL     1      27.134   2.056  52.138  1.00  0.00     0.059 C 
BRANCH  14  15
HETATM   15  C5  UNL     1      28.066   2.403  53.234  1.00  0.00     0.016 C 
HETATM   16  C6  UNL     1      28.962   1.728  53.974  1.00  0.00     0.090 C 
BRANCH  16  17
HETATM   17  O2  UNL     1      29.745   2.309  54.985  1.00  0.00    -0.359 OA
HETATM   18  H8  UNL     1      30.060   1.679  55.735  1.00  0.00     0.217 HD
ENDBRANCH  16  17
BRANCH  16  19
HETATM   19  C7  UNL     1      29.178   0.283  53.754  1.00  0.00     0.090 A 
HETATM   20  C8  UNL     1      30.194  -0.533  53.432  1.00  0.00     0.053 A 
HETATM   21  C9  UNL     1      29.313  -1.692  53.488  1.00  0.00     0.120 A 
HETATM   22  N1  UNL     1      28.349  -0.892  53.795  1.00  0.00    -0.258 NA
ENDBRANCH  16  19
ENDBRANCH  14  15
ENDBRANCH   2  14
TORSDOF 8
ENDMDL
