ROOT
HETATM    1  C3  UNL     1      26.631   1.859  51.876  1.00  0.00     0.100 C 
HETATM    2  C4  UNL     1      25.582   2.052  52.906  1.00  0.00     0.150 C 
HETATM    3  N1  UNL     1      25.344   0.913  53.738  1.00  0.00    -0.361 N 
HETATM    4  C12 UNL     1      26.228   0.253  54.707  1.00  0.00     0.276 C 
HETATM    5  N3  UNL     1      27.049  -0.666  53.979  1.00  0.00    -0.241 NA
HETATM    6  C13 UNL     1      28.296  -0.647  53.779  1.00  0.00     0.221 C 
HETATM    7 CL1  UNL     1      29.971  -0.884  53.341  1.00  0.00    -0.041 Cl
HETATM    8  N4  UNL     1      28.861   0.541  54.369  1.00  0.00    -0.214 NA
HETATM    9  C14 UNL     1      28.602   1.666  53.734  1.00  0.00     0.206 C 
HETATM   10  N5  UNL     1      27.911   2.087  52.602  1.00  0.00    -0.378 N 
HETATM   11  H17 UNL     1      28.662   2.769  52.269  1.00  0.00     0.160 HD
ENDROOT
BRANCH   3  12
HETATM   12  C5  UNL     1      24.053   0.259  53.668  1.00  0.00     0.032 A 
HETATM   13  C6  UNL     1      23.695  -0.765  54.557  1.00  0.00     0.029 A 
HETATM   14  C7  UNL     1      22.497  -1.427  54.575  1.00  0.00     0.003 A 
HETATM   15  C8  UNL     1      21.553  -1.063  53.643  1.00  0.00     0.015 A 
HETATM   16  C9  UNL     1      21.810  -0.056  52.717  1.00  0.00     0.034 A 
HETATM   17  C11 UNL     1      23.036   0.542  52.782  1.00  0.00     0.044 A 
BRANCH  16  18
HETATM   18  C10 UNL     1      20.805   0.340  51.723  1.00  0.00     0.354 C 
HETATM   19  F1  UNL     1      19.613  -0.354  51.963  1.00  0.00    -0.181 F 
HETATM   20  F2  UNL     1      21.252   0.008  50.477  1.00  0.00    -0.181 F 
BRANCH  18  21
HETATM   21  N2  UNL     1      20.532   1.743  51.817  1.00  0.00    -0.091 NA
HETATM   22  F3  UNL     1      20.178   2.044  53.084  1.00  0.00    -0.130 F 
HETATM   23  H12 UNL     1      19.867   2.092  51.119  1.00  0.00     0.166 HD
ENDBRANCH  18  21
ENDBRANCH  16  18
ENDBRANCH   3  12
BRANCH   1  24
HETATM   24  C2  UNL     1      26.710   2.942  50.819  1.00  0.00     0.022 C 
HETATM   25  C1  UNL     1      25.414   3.362  50.259  1.00  0.00     0.007 C 
ENDBRANCH   1  24
TORSDOF 4
ENDMDL
