ROOT
HETATM    1  C10 UNL     1      22.795   0.716  52.408  1.00  0.00     0.025 A 
HETATM    2  C11 UNL     1      21.861  -0.188  52.656  1.00  0.00     0.014 A 
HETATM    3  C12 UNL     1      22.210  -1.073  53.764  1.00  0.00     0.006 A 
HETATM    4  C13 UNL     1      23.418  -0.639  54.164  1.00  0.00    -0.051 A 
HETATM    5  C14 UNL     1      24.060  -1.362  55.316  1.00  0.00     0.046 C 
HETATM    6  C15 UNL     1      23.938   0.520  53.369  1.00  0.00     0.187 A 
ENDROOT
BRANCH   1   7
HETATM    7  C9  UNL     1      22.762   1.737  51.382  1.00  0.00     0.188 C 
HETATM    8  O1  UNL     1      22.747   1.430  50.165  1.00  0.00    -0.287 OA
BRANCH   7   9
HETATM    9  C2  UNL     1      22.745   3.168  51.611  1.00  0.00     0.011 C 
HETATM   10  C1  UNL     1      21.646   3.871  51.710  1.00  0.00     0.025 C 
BRANCH   9  11
HETATM   11  C3  UNL     1      23.975   3.969  51.755  1.00  0.00     0.314 C 
BRANCH  11  12
HETATM   12  N1  UNL     1      24.685   4.225  50.549  1.00  0.00     0.092 N 
HETATM   13  C4  UNL     1      26.002   3.563  50.739  1.00  0.00     0.272 C 
HETATM   14  C5  UNL     1      26.654   3.447  49.403  1.00  0.00     0.030 C 
HETATM   15  C6  UNL     1      26.931   4.850  48.892  1.00  0.00     0.003 C 
HETATM   16  C7  UNL     1      25.667   5.692  48.936  1.00  0.00     0.030 C 
HETATM   17  C8  UNL     1      25.035   5.614  50.326  1.00  0.00     0.272 C 
ENDBRANCH  11  12
ENDBRANCH   9  11
ENDBRANCH   7   9
ENDBRANCH   1   7
BRANCH   6  18
HETATM   18  O2  UNL     1      25.041   0.209  52.645  1.00  0.00    -0.372 OA
BRANCH  18  19
HETATM   19  C16 UNL     1      26.220   0.821  52.880  1.00  0.00     0.207 C 
BRANCH  19  20
HETATM   20  C17 UNL     1      27.310  -0.152  53.048  1.00  0.00    -0.035 A 
HETATM   21  C18 UNL     1      28.595  -0.043  53.533  1.00  0.00     0.009 A 
HETATM   22  C19 UNL     1      29.410  -1.141  53.586  1.00  0.00     0.001 A 
HETATM   23  C20 UNL     1      29.030  -2.385  53.178  1.00  0.00     0.000 A 
HETATM   24  C21 UNL     1      27.735  -2.526  52.683  1.00  0.00     0.001 A 
HETATM   25  C22 UNL     1      26.892  -1.413  52.623  1.00  0.00     0.009 A 
ENDBRANCH  19  20
ENDBRANCH  18  19
ENDBRANCH   6  18
TORSDOF 7
ENDMDL
