ROOT
HETATM    1  C2  UNL     1      18.621  -0.957  53.190  1.00  0.00     0.072 A 
HETATM    2  C3  UNL     1      19.713  -1.332  53.819  1.00  0.00     0.069 A 
HETATM    3  C4  UNL     1      20.802  -0.524  53.329  1.00  0.00     0.093 A 
HETATM    4  N1  UNL     1      21.994  -0.399  53.785  1.00  0.00    -0.240 NA
HETATM    5  C5  UNL     1      22.399  -1.091  54.919  1.00  0.00     0.230 C 
HETATM    6  N2  UNL     1      23.599  -1.038  54.790  1.00  0.00    -0.249 NA
HETATM    7  C6  UNL     1      24.572  -0.558  53.954  1.00  0.00     0.283 A 
HETATM    8  N3  UNL     1      25.887  -0.488  54.520  1.00  0.00    -0.254 NA
HETATM    9  C7  UNL     1      26.859   0.246  54.268  1.00  0.00     0.082 A 
HETATM   10  C8  UNL     1      28.082   0.201  54.884  1.00  0.00     0.034 A 
HETATM   11  C9  UNL     1      29.092   1.084  54.582  1.00  0.00     0.002 A 
HETATM   12  C10 UNL     1      28.864   2.039  53.633  1.00  0.00     0.002 A 
HETATM   13  C11 UNL     1      27.638   2.086  53.016  1.00  0.00     0.034 A 
HETATM   14  C12 UNL     1      26.600   1.186  53.323  1.00  0.00     0.085 A 
HETATM   15  N4  UNL     1      25.466   1.299  52.769  1.00  0.00    -0.247 NA
HETATM   16  C13 UNL     1      24.307   0.527  53.014  1.00  0.00     0.081 A 
HETATM   17  C14 UNL     1      23.275   1.055  52.356  1.00  0.00     0.034 C 
HETATM   18  C15 UNL     1      21.898   1.211  51.933  1.00  0.00     0.041 C 
HETATM   19  C16 UNL     1      20.821   0.533  52.335  1.00  0.00     0.098 A 
HETATM   20  O2  UNL     1      19.572   0.751  51.831  1.00  0.00    -0.342 OA
HETATM   21  C17 UNL     1      18.407   0.066  52.166  1.00  0.00     0.240 A 
ENDROOT
BRANCH   1  22
HETATM   22  O1  UNL     1      17.541  -1.709  53.628  1.00  0.00    -0.358 OA
HETATM   23  C1  UNL     1      17.549  -3.101  53.577  1.00  0.00     0.209 C 
ENDBRANCH   1  22
TORSDOF 1
ENDMDL
