ROOT
HETATM    1  C2  UNL     1      21.104   0.435  51.760  1.00  0.00     0.103 A 
HETATM    2  C3  UNL     1      21.635   1.271  50.809  1.00  0.00     0.072 A 
HETATM    3  C4  UNL     1      22.958   1.707  50.841  1.00  0.00     0.075 A 
HETATM    4  N1  UNL     1      23.506   2.530  49.915  1.00  0.00    -0.241 NA
HETATM    5  C5  UNL     1      24.818   2.867  50.086  1.00  0.00     0.236 A 
HETATM    6  N2  UNL     1      25.594   2.436  51.109  1.00  0.00    -0.223 NA
HETATM    7  C6  UNL     1      25.052   1.599  52.058  1.00  0.00     0.144 A 
HETATM    8  C15 UNL     1      23.703   1.252  51.887  1.00  0.00     0.042 A 
HETATM    9  C16 UNL     1      23.283   0.410  52.899  1.00  0.00     0.057 A 
HETATM   10  C17 UNL     1      21.944   0.027  52.777  1.00  0.00     0.102 A 
ENDROOT
BRANCH   7  11
HETATM   11  N3  UNL     1      26.019   1.185  53.011  1.00  0.00    -0.335 N 
HETATM   12  C7  UNL     1      26.041   2.210  54.039  1.00  0.00     0.158 C 
BRANCH  11  13
HETATM   13  C8  UNL     1      26.793  -0.005  52.943  1.00  0.00     0.036 A 
HETATM   14  C9  UNL     1      26.217  -1.175  52.435  1.00  0.00     0.029 A 
HETATM   15  C10 UNL     1      27.047  -2.304  52.408  1.00  0.00     0.003 A 
HETATM   16  C11 UNL     1      28.345  -2.241  52.859  1.00  0.00     0.007 A 
HETATM   17  C12 UNL     1      28.906  -1.088  53.357  1.00  0.00    -0.060 A 
HETATM   18  C13 UNL     1      30.312  -1.051  53.837  1.00  0.00     0.048 C 
HETATM   19  C14 UNL     1      28.085   0.038  53.387  1.00  0.00     0.036 A 
ENDBRANCH  11  13
ENDBRANCH   7  11
BRANCH  10  20
HETATM   20  O2  UNL     1      21.438  -0.823  53.743  1.00  0.00    -0.353 OA
HETATM   21  C18 UNL     1      22.276  -1.254  54.785  1.00  0.00     0.210 C 
ENDBRANCH  10  20
BRANCH   1  22
HETATM   22  O1  UNL     1      19.808  -0.022  51.789  1.00  0.00    -0.353 OA
HETATM   23  C1  UNL     1      18.755   0.918  51.698  1.00  0.00     0.210 C 
ENDBRANCH   1  22
TORSDOF 4
ENDMDL
