ROOT
HETATM    1  S1  UNL     1      25.059   0.626  53.134  1.00  0.00    -0.146 SA
HETATM    2  C7  UNL     1      25.592  -0.626  52.286  1.00  0.00     0.021 C 
HETATM    3  C8  UNL     1      27.001  -0.477  51.900  1.00  0.00     0.098 C 
HETATM    4  C9  UNL     1      27.866  -0.637  53.084  1.00  0.00     0.047 C 
HETATM    5  C11 UNL     1      28.466   0.218  53.825  1.00  0.00     0.029 C 
HETATM    6  C12 UNL     1      29.107   1.234  54.614  1.00  0.00     0.261 C 
HETATM    7  N1  UNL     1      28.689   2.406  54.150  1.00  0.00    -0.295 NA
HETATM    8  C13 UNL     1      27.768   2.365  53.072  1.00  0.00     0.163 C 
HETATM    9  N2  UNL     1      26.838   2.319  52.185  1.00  0.00    -0.281 NA
HETATM   10  C14 UNL     1      25.413   2.212  52.446  1.00  0.00     0.221 C 
ENDROOT
BRANCH   1  11
HETATM   11  C4  UNL     1      23.383   0.330  53.525  1.00  0.00    -0.007 C 
BRANCH  11  12
HETATM   12  C3  UNL     1      22.256   0.989  53.212  1.00  0.00    -0.004 C 
BRANCH  12  13
HETATM   13  C2  UNL     1      22.210   0.697  51.798  1.00  0.00     0.035 C 
HETATM   14  C1  UNL     1      21.390   0.518  50.783  1.00  0.00    -0.008 C 
ENDBRANCH  12  13
ENDBRANCH  11  12
BRANCH  11  15
HETATM   15  C5  UNL     1      22.976  -0.783  54.323  1.00  0.00     0.055 C 
BRANCH  15  16
HETATM   16  C6  UNL     1      21.684  -0.970  54.501  1.00  0.00     0.246 A 
HETATM   17  F1  UNL     1      20.429  -1.476  54.457  1.00  0.00    -0.277 F 
HETATM   18 CL1  UNL     1      20.261  -1.930  54.196  1.00  0.00    -0.005 Cl
ENDBRANCH  15  16
ENDBRANCH  11  15
ENDBRANCH   1  11
BRANCH   4  19
HETATM   19  O1  UNL     1      28.083  -1.979  53.489  1.00  0.00    -0.360 OA
HETATM   20  C10 UNL     1      29.376  -2.493  53.380  1.00  0.00     0.209 C 
ENDBRANCH   4  19
TORSDOF 6
ENDMDL
