ROOT
HETATM    1  C2  UNL     1      27.317   0.600  54.049  1.00  0.00     0.018 C 
HETATM    2  C3  UNL     1      27.693  -0.224  52.840  1.00  0.00     0.026 C 
HETATM    3  C4  UNL     1      26.413  -0.671  52.172  1.00  0.00     0.120 C 
HETATM    4  N2  UNL     1      25.466   0.425  52.261  1.00  0.00    -0.371 N 
HETATM    5  C5  UNL     1      23.904   0.548  52.202  1.00  0.00     0.117 A 
HETATM    6  C6  UNL     1      23.748   1.714  51.778  1.00  0.00     0.258 A 
HETATM    7  C7  UNL     1      23.663   1.025  53.149  1.00  0.00     0.190 A 
HETATM    8  C8  UNL     1      23.645   0.177  54.214  1.00  0.00    -0.006 A 
HETATM    9  C9  UNL     1      23.199  -0.607  52.851  1.00  0.00     0.101 A 
HETATM   10  N3  UNL     1      24.549   2.317  53.089  1.00  0.00     0.008 N 
HETATM   11  C10 UNL     1      24.151   3.767  53.362  1.00  0.00     0.393 C 
HETATM   12  N4  UNL     1      23.282   4.015  52.100  1.00  0.00    -0.246 NA
HETATM   13  C11 UNL     1      23.583   3.041  51.197  1.00  0.00     0.144 C 
HETATM   14  C18 UNL     1      25.941   1.884  52.511  1.00  0.00     0.293 C 
HETATM   15  C19 UNL     1      26.891   1.956  53.599  1.00  0.00     0.061 C 
ENDROOT
BRANCH  13  16
HETATM   16  N5  UNL     1      23.714   2.834  49.768  1.00  0.00    -0.342 N 
HETATM   17  H15 UNL     1      23.104   2.102  49.289  1.00  0.00     0.167 HD
BRANCH  16  18
HETATM   18  C12 UNL     1      24.725   3.781  49.433  1.00  0.00     0.033 A 
HETATM   19  C13 UNL     1      26.061   3.374  49.487  1.00  0.00     0.029 A 
HETATM   20  C14 UNL     1      27.056   4.271  49.172  1.00  0.00     0.002 A 
HETATM   21  C15 UNL     1      26.695   5.565  48.809  1.00  0.00     0.000 A 
HETATM   22  C16 UNL     1      25.358   5.936  48.767  1.00  0.00     0.002 A 
HETATM   23  C17 UNL     1      24.343   5.052  49.077  1.00  0.00     0.029 A 
ENDBRANCH  16  18
ENDBRANCH  13  16
BRANCH   1  24
HETATM   24  C1  UNL     1      28.522   0.591  54.961  1.00  0.00     0.271 C 
BRANCH  24  25
HETATM   25  N1  UNL     1      29.349   1.766  54.849  1.00  0.00     0.078 N 
HETATM   26  H1  UNL     1      29.655   2.063  55.823  1.00  0.00     0.312 HD
HETATM   27  H2  UNL     1      28.724   2.537  54.486  1.00  0.00     0.312 HD
ENDBRANCH  24  25
ENDBRANCH   1  24
TORSDOF 4
ENDMDL
