ROOT
HETATM    1  C7  UNL     1      25.223   1.084  52.040  1.00  0.00     0.141 C 
HETATM    2  C8  UNL     1      26.409   1.741  52.666  1.00  0.00     0.023 C 
HETATM    3  C9  UNL     1      27.258   0.991  53.359  1.00  0.00     0.045 C 
HETATM    4  C10 UNL     1      28.340   1.815  53.884  1.00  0.00     0.097 C 
HETATM    5  N2  UNL     1      29.200   2.462  54.320  1.00  0.00    -0.192 NA
HETATM    6  C11 UNL     1      27.329  -0.452  53.693  1.00  0.00     0.225 C 
HETATM    7  O1  UNL     1      26.065  -1.052  53.914  1.00  0.00    -0.345 OA
HETATM    8  C12 UNL     1      24.799  -0.425  53.931  1.00  0.00     0.077 C 
HETATM    9  C13 UNL     1      24.378   0.538  53.110  1.00  0.00     0.002 C 
HETATM   10  C14 UNL     1      23.159   1.287  53.009  1.00  0.00     0.012 C 
HETATM   11  C15 UNL     1      21.900   1.058  53.343  1.00  0.00     0.001 C 
HETATM   12  C16 UNL     1      21.207  -0.088  53.974  1.00  0.00     0.000 C 
HETATM   13  C17 UNL     1      21.644  -1.070  54.776  1.00  0.00     0.000 C 
HETATM   14  C18 UNL     1      22.949  -1.395  55.340  1.00  0.00     0.003 C 
HETATM   15  C19 UNL     1      24.234  -1.176  55.060  1.00  0.00     0.037 C 
ENDROOT
BRANCH   1  16
HETATM   16  N1  UNL     1      24.566   1.898  51.066  1.00  0.00    -0.387 N 
HETATM   17  H8  UNL     1      23.571   1.924  50.755  1.00  0.00     0.159 HD
BRANCH  16  18
HETATM   18  C6  UNL     1      25.353   2.881  50.357  1.00  0.00     0.085 C 
BRANCH  18  19
HETATM   19  C5  UNL     1      25.580   4.087  49.913  1.00  0.00     0.031 C 
BRANCH  19  20
HETATM   20  C4  UNL     1      25.679   5.379  49.314  1.00  0.00     0.012 C 
HETATM   21  C3  UNL     1      26.818   5.692  48.715  1.00  0.00     0.045 C 
HETATM   22  N5  UNL     1      27.147   6.915  48.007  1.00  0.00    -0.263 NA
HETATM   23  C24 UNL     1      26.391   7.770  47.353  1.00  0.00     0.136 C 
HETATM   24  C23 UNL     1      24.969   7.930  47.027  1.00  0.00     0.135 C 
HETATM   25  N4  UNL     1      23.856   7.619  47.625  1.00  0.00    -0.270 NA
HETATM   26  C22 UNL     1      23.660   6.966  48.901  1.00  0.00     0.139 C 
HETATM   27  C20 UNL     1      24.415   6.061  49.564  1.00  0.00     0.074 C 
HETATM   28  C21 UNL     1      23.811   5.742  50.826  1.00  0.00     0.102 C 
HETATM   29  N3  UNL     1      23.320   5.503  51.850  1.00  0.00    -0.191 NA
BRANCH  21  30
HETATM   30  C2  UNL     1      28.047   4.895  48.567  1.00  0.00     0.056 C 
HETATM   31  C1  UNL     1      29.182   5.855  48.200  1.00  0.00     0.011 C 
ENDBRANCH  21  30
ENDBRANCH  19  20
ENDBRANCH  18  19
ENDBRANCH  16  18
ENDBRANCH   1  16
TORSDOF 5
ENDMDL
