ROOT
HETATM    1  C1  UNL     1      28.671   0.309  54.862  1.00  0.00     0.017 C 
HETATM    2  C2  UNL     1      27.488   0.143  54.580  1.00  0.00    -0.081 C 
HETATM    3  C3  UNL     1      26.055  -0.073  54.260  1.00  0.00     0.007 C 
HETATM    4  C4  UNL     1      25.345  -0.685  55.209  1.00  0.00     0.017 C 
HETATM    5  C5  UNL     1      24.106  -1.245  55.725  1.00  0.00    -0.001 C 
HETATM    6  C6  UNL     1      22.872  -1.418  55.275  1.00  0.00    -0.000 C 
HETATM    7  C7  UNL     1      22.184  -1.134  54.015  1.00  0.00     0.205 C 
HETATM    8  O1  UNL     1      21.103  -0.223  54.108  1.00  0.00    -0.324 OA
HETATM    9  C8  UNL     1      21.150   0.839  53.143  1.00  0.00     0.225 C 
HETATM   10  N1  UNL     1      22.236   1.425  52.800  1.00  0.00    -0.118 NA
HETATM   11  N2  UNL     1      23.522   1.248  53.191  1.00  0.00    -0.163 NA
HETATM   12  C16 UNL     1      24.540   0.791  52.579  1.00  0.00     0.128 C 
HETATM   13  C17 UNL     1      25.957   0.573  52.935  1.00  0.00     0.023 C 
HETATM   14  C18 UNL     1      26.637  -0.354  51.946  1.00  0.00     0.027 C 
HETATM   15  C19 UNL     1      26.699   1.916  52.885  1.00  0.00     0.027 C 
ENDROOT
BRANCH   9  16
HETATM   16  S1  UNL     1      20.158   1.832  52.058  1.00  0.00    -0.079 SA
BRANCH  16  17
HETATM   17  C9  UNL     1      19.571   0.824  50.697  1.00  0.00     0.121 C 
BRANCH  17  18
HETATM   18  C10 UNL     1      18.316   0.112  51.004  1.00  0.00    -0.049 A 
HETATM   19  C11 UNL     1      18.096  -0.565  52.184  1.00  0.00     0.008 A 
HETATM   20  C12 UNL     1      16.963  -1.250  52.543  1.00  0.00     0.001 A 
HETATM   21  C13 UNL     1      15.958  -1.244  51.609  1.00  0.00     0.000 A 
HETATM   22  C14 UNL     1      16.086  -0.592  50.395  1.00  0.00     0.001 A 
HETATM   23  C15 UNL     1      17.262   0.087  50.088  1.00  0.00     0.008 A 
ENDBRANCH  17  18
ENDBRANCH  16  17
ENDBRANCH   9  16
TORSDOF 3
ENDMDL
