ROOT
HETATM    1  C7  UNL     1      24.853   0.764  53.339  1.00  0.00     0.040 A 
HETATM    2  C8  UNL     1      23.616   0.195  53.559  1.00  0.00     0.132 A 
HETATM    3  N1  UNL     1      23.361  -0.781  54.452  1.00  0.00    -0.253 NA
HETATM    4  C9  UNL     1      24.383  -1.260  55.206  1.00  0.00     0.234 A 
HETATM    5  N2  UNL     1      25.597  -0.720  55.008  1.00  0.00    -0.224 NA
HETATM    6  C10 UNL     1      25.864   0.249  54.127  1.00  0.00     0.136 A 
ENDROOT
BRANCH   6   7
HETATM    7  N3  UNL     1      27.187   0.744  54.004  1.00  0.00    -0.363 N 
HETATM    8  H14 UNL     1      27.617   1.548  54.495  1.00  0.00     0.162 HD
BRANCH   7   9
HETATM    9  C11 UNL     1      28.099   0.114  53.117  1.00  0.00     0.132 A 
HETATM   10  C12 UNL     1      29.456  -0.093  53.742  1.00  0.00     0.005 A 
HETATM   11  C13 UNL     1      29.798  -1.371  53.807  1.00  0.00     0.034 A 
HETATM   12  C14 UNL     1      28.705  -2.149  53.230  1.00  0.00     0.064 A 
HETATM   13  C15 UNL     1      27.751  -1.314  52.843  1.00  0.00     0.038 A 
BRANCH  12  14
HETATM   14  O3  UNL     1      28.675  -3.532  53.111  1.00  0.00    -0.361 OA
HETATM   15  H18 UNL     1      29.206  -4.033  52.396  1.00  0.00     0.217 HD
ENDBRANCH  12  14
ENDBRANCH   7   9
ENDBRANCH   6   7
BRANCH   1  16
HETATM   16  C5  UNL     1      25.006   1.816  52.339  1.00  0.00     0.215 C 
BRANCH  16  17
HETATM   17  C3  UNL     1      23.710   2.263  51.720  1.00  0.00     0.075 C 
HETATM   18  C2  UNL     1      23.137   3.442  52.021  1.00  0.00     0.004 C 
HETATM   19  C1  UNL     1      23.455   4.583  52.905  1.00  0.00     0.038 C 
BRANCH  17  20
HETATM   20  O1  UNL     1      23.088   1.415  50.799  1.00  0.00    -0.358 OA
HETATM   21  C4  UNL     1      22.158   1.871  49.841  1.00  0.00     0.209 C 
ENDBRANCH  17  20
ENDBRANCH  16  17
BRANCH  16  22
HETATM   22  O2  UNL     1      25.946   1.524  51.363  1.00  0.00    -0.379 OA
HETATM   23  C6  UNL     1      26.534   2.627  50.806  1.00  0.00     0.202 C 
ENDBRANCH  16  22
ENDBRANCH   1  16
TORSDOF 7
ENDMDL
