ROOT
HETATM    1  C9  UNL     1      24.446   5.487  50.262  1.00  0.00     0.264 C 
HETATM    2  C10 UNL     1      24.507   7.008  50.548  1.00  0.00     0.080 C 
HETATM    3  C11 UNL     1      23.585   4.994  51.383  1.00  0.00     0.039 C 
HETATM    4  C12 UNL     1      22.508   4.240  51.459  1.00  0.00     0.018 C 
HETATM    5  C13 UNL     1      21.754   3.598  50.404  1.00  0.00     0.040 A 
HETATM    6  C14 UNL     1      21.943   3.860  49.067  1.00  0.00     0.089 A 
HETATM    7  N3  UNL     1      21.172   3.253  48.136  1.00  0.00    -0.240 NA
HETATM    8  C15 UNL     1      20.236   2.394  48.622  1.00  0.00     0.236 A 
HETATM    9  N4  UNL     1      20.077   2.158  49.931  1.00  0.00    -0.224 NA
HETATM   10  C16 UNL     1      20.808   2.730  50.885  1.00  0.00     0.142 A 
HETATM   11  C23 UNL     1      22.921   4.741  48.405  1.00  0.00     0.146 C 
HETATM   12  N6  UNL     1      23.912   5.365  48.966  1.00  0.00    -0.254 NA
ENDROOT
BRANCH   1  13
HETATM   13  N2  UNL     1      25.802   5.042  50.467  1.00  0.00     0.122 N 
HETATM   14  H19 UNL     1      26.436   5.896  50.382  1.00  0.00     0.320 HD
BRANCH  13  15
HETATM   15  C2  UNL     1      26.306   4.144  49.430  1.00  0.00     0.222 C 
HETATM   16  C1  UNL     1      27.519   4.683  48.778  1.00  0.00     0.043 C 
BRANCH  15  17
HETATM   17  C3  UNL     1      26.393   2.790  50.053  1.00  0.00     0.065 C 
BRANCH  17  18
HETATM   18  C4  UNL     1      26.862   2.701  51.446  1.00  0.00     0.274 C 
BRANCH  18  19
HETATM   19  N1  UNL     1      26.239   1.808  52.351  1.00  0.00     0.088 N 
HETATM   20  C5  UNL     1      25.505   2.388  53.417  1.00  0.00     0.310 C 
BRANCH  19  21
HETATM   21  C6  UNL     1      27.137   0.744  52.679  1.00  0.00     0.214 C 
HETATM   22  C7  UNL     1      27.468   0.712  54.172  1.00  0.00     0.042 C 
HETATM   23  C8  UNL     1      26.785  -0.600  52.145  1.00  0.00     0.042 C 
ENDBRANCH  19  21
ENDBRANCH  18  19
ENDBRANCH  17  18
ENDBRANCH  15  17
ENDBRANCH  13  15
ENDBRANCH   1  13
BRANCH  10  24
HETATM   24  N5  UNL     1      20.651   2.430  52.257  1.00  0.00    -0.340 N 
HETATM   25  H26 UNL     1      20.344   3.057  53.022  1.00  0.00     0.167 HD
BRANCH  24  26
HETATM   26  C17 UNL     1      20.907   1.181  52.892  1.00  0.00     0.035 A 
HETATM   27  C18 UNL     1      19.988   0.200  53.155  1.00  0.00     0.032 A 
HETATM   28  C19 UNL     1      20.266  -1.001  53.760  1.00  0.00     0.046 A 
HETATM   29  C20 UNL     1      21.556  -1.275  54.145  1.00  0.00     0.138 A 
HETATM   30  F1  UNL     1      21.776  -2.470  54.736  1.00  0.00    -0.204 F 
HETATM   31  C21 UNL     1      22.522  -0.305  53.896  1.00  0.00     0.074 A 
HETATM   32 CL1  UNL     1      24.130  -0.791  54.439  1.00  0.00    -0.081 Cl
HETATM   33  C22 UNL     1      22.193   0.885  53.287  1.00  0.00     0.056 A 
ENDBRANCH  24  26
ENDBRANCH  10  24
TORSDOF 8
ENDMDL
