ROOT
HETATM    1  N1  UNL     1      23.292  -0.392  53.056  1.00  0.00    -0.190 N 
HETATM    2  C5  UNL     1      24.575   0.109  52.663  1.00  0.00     0.701 C 
HETATM    3  N2  UNL     1      24.525   1.224  52.100  1.00  0.00    -0.078 NA
HETATM    4  N3  UNL     1      25.737  -0.628  52.917  1.00  0.00    -0.211 N 
HETATM    5  H5  UNL     1      23.280  -1.088  53.865  1.00  0.00     0.184 HD
HETATM    6  H8  UNL     1      25.625  -1.686  52.938  1.00  0.00     0.178 HD
ENDROOT
BRANCH   1   7
HETATM    7  C4  UNL     1      22.008  -0.108  52.521  1.00  0.00     0.060 A 
HETATM    8  C3  UNL     1      21.766   0.532  51.328  1.00  0.00     0.070 A 
HETATM    9  C2  UNL     1      20.522   0.800  50.807  1.00  0.00     0.106 A 
HETATM   10  C17 UNL     1      19.395   0.417  51.499  1.00  0.00     0.135 A 
HETATM   11  C15 UNL     1      19.594  -0.227  52.700  1.00  0.00     0.112 A 
HETATM   12  C13 UNL     1      20.847  -0.485  53.203  1.00  0.00     0.002 A 
HETATM   13  C14 UNL     1      20.979  -1.195  54.525  1.00  0.00     0.054 C 
BRANCH   9  14
HETATM   14  O1  UNL     1      20.334   1.450  49.595  1.00  0.00    -0.353 OA
HETATM   15  C1  UNL     1      21.364   1.341  48.632  1.00  0.00     0.210 C 
ENDBRANCH   9  14
BRANCH  10  16
HETATM   16  O5  UNL     1      18.120   0.641  51.062  1.00  0.00    -0.351 OA
HETATM   17  C18 UNL     1      17.379  -0.126  50.164  1.00  0.00     0.210 C 
ENDBRANCH  10  16
BRANCH  11  18
HETATM   18  O4  UNL     1      18.508  -0.639  53.450  1.00  0.00    -0.352 OA
HETATM   19  C16 UNL     1      17.889  -1.882  53.338  1.00  0.00     0.210 C 
ENDBRANCH  11  18
ENDBRANCH   1   7
BRANCH   3  20
HETATM   20  C6  UNL     1      25.597   1.960  51.608  1.00  0.00     0.148 C 
BRANCH  20  21
HETATM   21  C7  UNL     1      25.014   2.694  50.669  1.00  0.00     0.461 C 
HETATM   22  F1  UNL     1      24.418   3.024  49.522  1.00  0.00    -0.451 F 
ENDBRANCH  20  21
ENDBRANCH   3  20
BRANCH   4  23
HETATM   23  C8  UNL     1      27.024  -0.053  53.152  1.00  0.00     0.193 C 
HETATM   24  C9  UNL     1      27.018   0.564  54.545  1.00  0.00     0.201 C 
HETATM   25  O2  UNL     1      28.157   1.366  54.589  1.00  0.00    -0.388 OA
HETATM   26  C10 UNL     1      29.321   0.645  54.533  1.00  0.00     0.175 C 
HETATM   27  C11 UNL     1      29.369  -0.462  53.543  1.00  0.00     0.107 C 
HETATM   28  C12 UNL     1      28.092  -1.102  53.218  1.00  0.00     0.154 C 
HETATM   29  O3  UNL     1      27.945  -2.319  53.032  1.00  0.00    -0.296 OA
ENDBRANCH   4  23
TORSDOF 7
ENDMDL
