ROOT
HETATM    1  C4  UNL     1      24.830   1.709  52.569  1.00  0.00     0.040 C 
HETATM    2  C5  UNL     1      24.693   2.340  51.428  1.00  0.00     0.046 C 
HETATM    3  C6  UNL     1      25.248   3.363  50.581  1.00  0.00     0.030 A 
HETATM    4  C7  UNL     1      26.493   2.989  50.129  1.00  0.00     0.133 A 
HETATM    5  N2  UNL     1      27.344   3.673  49.312  1.00  0.00    -0.253 NA
HETATM    6  C8  UNL     1      26.849   4.883  48.921  1.00  0.00     0.234 A 
HETATM    7  N3  UNL     1      25.642   5.278  49.342  1.00  0.00    -0.224 NA
HETATM    8  C9  UNL     1      24.818   4.589  50.147  1.00  0.00     0.141 A 
HETATM    9  N4  UNL     1      23.626   5.391  50.340  1.00  0.00    -0.340 N 
HETATM   10  C10 UNL     1      22.428   4.708  50.671  1.00  0.00     0.034 A 
HETATM   11  C11 UNL     1      21.800   4.838  51.877  1.00  0.00     0.032 A 
HETATM   12  C12 UNL     1      20.715   4.025  52.132  1.00  0.00     0.032 A 
HETATM   13  C13 UNL     1      20.817   3.415  50.898  1.00  0.00     0.038 A 
HETATM   14  C14 UNL     1      21.142   2.975  49.605  1.00  0.00    -0.012 A 
HETATM   15  C15 UNL     1      22.168   3.883  49.614  1.00  0.00     0.040 A 
HETATM   16  C16 UNL     1      19.981   2.015  49.717  1.00  0.00     0.164 C 
HETATM   17  N5  UNL     1      20.190   2.103  51.117  1.00  0.00    -0.370 N 
HETATM   18  C17 UNL     1      19.973   1.272  52.289  1.00  0.00     0.182 C 
HETATM   19  C18 UNL     1      21.204   0.529  52.662  1.00  0.00     0.052 A 
HETATM   20  C19 UNL     1      22.435   1.118  52.546  1.00  0.00     0.042 A 
HETATM   21  C20 UNL     1      23.747   0.725  52.813  1.00  0.00    -0.006 A 
HETATM   22  C21 UNL     1      23.750  -0.553  53.299  1.00  0.00     0.033 A 
HETATM   23  C22 UNL     1      22.562  -1.228  53.450  1.00  0.00     0.118 A 
HETATM   24  N6  UNL     1      21.362  -0.714  53.148  1.00  0.00    -0.264 NA
HETATM   25  H10 UNL     1      23.542   6.410  50.270  1.00  0.00     0.167 HD
ENDROOT
BRANCH   1  26
HETATM   26  N1  UNL     1      25.882   1.989  53.478  1.00  0.00    -0.379 N 
HETATM   27  H6  UNL     1      25.353   2.826  53.809  1.00  0.00     0.160 HD
BRANCH  26  28
HETATM   28  C2  UNL     1      27.175   1.538  53.952  1.00  0.00     0.139 C 
HETATM   29  C1  UNL     1      28.288   2.405  53.395  1.00  0.00     0.039 C 
BRANCH  28  30
HETATM   30  C3  UNL     1      27.368   0.181  53.318  1.00  0.00     0.255 C 
HETATM   31  O1  UNL     1      27.210  -0.840  53.966  1.00  0.00    -0.305 OA
ENDBRANCH  28  30
ENDBRANCH  26  28
ENDBRANCH   1  26
TORSDOF 3
ENDMDL
