ROOT
HETATM    1  C6  UNL     1      24.625   0.063  53.357  1.00  0.00     0.052 C 
HETATM    2  C7  UNL     1      24.877  -0.638  54.604  1.00  0.00     0.100 C 
HETATM    3  N1  UNL     1      25.094  -1.218  55.614  1.00  0.00    -0.191 NA
HETATM    4  C8  UNL     1      25.615   0.179  52.473  1.00  0.00     0.034 C 
ENDROOT
BRANCH   1   5
HETATM    5  C5  UNL     1      23.261   0.602  53.134  1.00  0.00    -0.031 A 
HETATM    6  C4  UNL     1      23.242   1.785  52.539  1.00  0.00     0.009 A 
HETATM    7  C3  UNL     1      22.102   2.595  52.173  1.00  0.00     0.007 A 
HETATM    8  C2  UNL     1      20.815   2.365  52.393  1.00  0.00    -0.060 A 
HETATM    9  C1  UNL     1      19.894   3.416  51.875  1.00  0.00     0.048 C 
HETATM   10  C17 UNL     1      20.160   1.257  53.054  1.00  0.00     0.039 A 
HETATM   11  C16 UNL     1      20.840   0.212  53.526  1.00  0.00     0.048 A 
HETATM   12  C15 UNL     1      22.206  -0.286  53.631  1.00  0.00     0.104 A 
BRANCH  11  13
HETATM   13  O3  UNL     1      20.085  -0.793  54.143  1.00  0.00    -0.365 OA
HETATM   14  H14 UNL     1      20.483  -1.709  54.299  1.00  0.00     0.217 HD
ENDBRANCH  11  13
ENDBRANCH   1   5
BRANCH   4  15
HETATM   15  C9  UNL     1      26.915  -0.409  52.828  1.00  0.00    -0.032 A 
HETATM   16  C10 UNL     1      27.855   0.556  53.222  1.00  0.00     0.014 A 
HETATM   17  C11 UNL     1      29.116   0.133  53.619  1.00  0.00     0.040 A 
HETATM   18  C12 UNL     1      29.424  -1.212  53.619  1.00  0.00     0.098 A 
HETATM   19  C13 UNL     1      28.514  -2.164  53.236  1.00  0.00     0.099 A 
HETATM   20  C14 UNL     1      27.240  -1.759  52.834  1.00  0.00     0.051 A 
BRANCH  18  21
HETATM   21  O1  UNL     1      30.679  -1.650  54.013  1.00  0.00    -0.358 OA
HETATM   22  H9  UNL     1      31.323  -2.055  53.313  1.00  0.00     0.217 HD
ENDBRANCH  18  21
BRANCH  19  23
HETATM   23  O2  UNL     1      28.768  -3.520  53.219  1.00  0.00    -0.358 OA
HETATM   24  H10 UNL     1      29.296  -3.903  52.438  1.00  0.00     0.217 HD
ENDBRANCH  19  23
ENDBRANCH   4  15
TORSDOF 5
ENDMDL
