ROOT
HETATM    1  N1  UNL     1      22.012   3.175  51.492  1.00  0.00    -0.307 N 
HETATM    2  C7  UNL     1      20.779   3.782  51.119  1.00  0.00     0.249 C 
HETATM    3  O2  UNL     1      20.653   4.521  50.107  1.00  0.00    -0.271 OA
HETATM    4  C8  UNL     1      19.552   3.567  51.931  1.00  0.00     0.279 C 
HETATM    5  O3  UNL     1      19.554   2.276  52.510  1.00  0.00    -0.340 OA
HETATM    6  C9  UNL     1      20.720   1.667  52.891  1.00  0.00     0.099 A 
HETATM    7  C10 UNL     1      20.610   0.646  53.755  1.00  0.00     0.073 A 
HETATM    8  C11 UNL     1      21.883   0.029  54.130  1.00  0.00     0.090 A 
HETATM    9  N2  UNL     1      21.926  -0.965  54.956  1.00  0.00    -0.238 NA
HETATM   10  C12 UNL     1      23.203  -1.540  55.295  1.00  0.00     0.255 A 
HETATM   11  N3  UNL     1      24.362  -1.151  54.844  1.00  0.00    -0.164 NA
HETATM   12  N4  UNL     1      24.411  -0.066  53.933  1.00  0.00    -0.254 N 
HETATM   13  C18 UNL     1      23.142   0.525  53.580  1.00  0.00     0.096 A 
HETATM   14  C19 UNL     1      23.162   1.510  52.755  1.00  0.00     0.040 A 
HETATM   15  C20 UNL     1      22.040   2.080  52.402  1.00  0.00     0.085 A 
ENDROOT
BRANCH   1  16
HETATM   16  C6  UNL     1      23.236   3.677  50.938  1.00  0.00     0.100 C 
HETATM   17  C2  UNL     1      23.396   3.234  49.500  1.00  0.00    -0.027 C 
HETATM   18  C1  UNL     1      22.773   2.305  48.745  1.00  0.00     0.044 C 
HETATM   19  C3  UNL     1      24.492   4.075  48.934  1.00  0.00     0.039 C 
HETATM   20  C4  UNL     1      24.454   5.328  49.798  1.00  0.00     0.120 C 
HETATM   21  C5  UNL     1      23.292   5.158  50.757  1.00  0.00     0.057 C 
BRANCH  20  22
HETATM   22  O1  UNL     1      25.645   5.355  50.539  1.00  0.00    -0.395 OA
HETATM   23  H6  UNL     1      26.084   6.214  50.338  1.00  0.00     0.210 HD
ENDBRANCH  20  22
ENDBRANCH   1  16
BRANCH  12  24
HETATM   24  C13 UNL     1      25.627   0.444  53.375  1.00  0.00     0.158 A 
HETATM   25  C14 UNL     1      26.450   1.043  54.470  1.00  0.00     0.006 A 
HETATM   26  C15 UNL     1      27.573   0.360  54.523  1.00  0.00     0.022 A 
HETATM   27  C16 UNL     1      27.593  -0.689  53.525  1.00  0.00     0.032 A 
HETATM   28 CL1  UNL     1      28.805  -1.887  53.137  1.00  0.00    -0.085 Cl
HETATM   29  C17 UNL     1      26.456  -0.661  52.835  1.00  0.00     0.028 A 
ENDBRANCH  12  24
TORSDOF 3
ENDMDL
