ROOT
HETATM    1  C2  UNL     1      23.179   3.885  52.254  1.00  0.00     0.023 C 
HETATM    2  C3  UNL     1      22.050   4.434  51.825  1.00  0.00     0.007 C 
HETATM    3  C4  UNL     1      20.992   4.520  50.767  1.00  0.00     0.035 C 
HETATM    4  C5  UNL     1      19.722   4.046  51.568  1.00  0.00     0.012 C 
HETATM    5  C6  UNL     1      20.166   3.173  52.523  1.00  0.00     0.116 C 
HETATM    6  N2  UNL     1      21.214   2.344  51.960  1.00  0.00    -0.245 N 
HETATM    7  N3  UNL     1      21.569   2.536  50.664  1.00  0.00    -0.183 NA
HETATM    8  C7  UNL     1      21.118   3.362  49.836  1.00  0.00     0.130 C 
HETATM    9  C8  UNL     1      22.197   1.373  52.368  1.00  0.00     0.071 A 
HETATM   10  C9  UNL     1      21.648   0.241  52.931  1.00  0.00     0.056 A 
HETATM   11  C10 UNL     1      22.495  -0.747  53.406  1.00  0.00     0.036 A 
HETATM   12 CL1  UNL     1      21.789  -2.187  54.125  1.00  0.00    -0.084 Cl
HETATM   13  C11 UNL     1      23.844  -0.578  53.306  1.00  0.00     0.024 A 
HETATM   14  C12 UNL     1      24.384   0.570  52.734  1.00  0.00     0.017 A 
HETATM   15  C13 UNL     1      23.607   1.569  52.251  1.00  0.00     0.037 A 
HETATM   16  C14 UNL     1      24.101   2.753  51.612  1.00  0.00     0.224 C 
HETATM   17  O2  UNL     1      25.305   3.301  51.894  1.00  0.00    -0.347 OA
HETATM   18  C15 UNL     1      26.447   2.915  51.266  1.00  0.00     0.174 C 
HETATM   19  C16 UNL     1      26.348   3.305  49.778  1.00  0.00     0.056 C 
HETATM   20  C17 UNL     1      26.026   4.771  49.655  1.00  0.00     0.272 C 
HETATM   21  N4  UNL     1      25.037   4.928  48.612  1.00  0.00     0.085 N 
HETATM   22  C18 UNL     1      24.621   6.285  48.373  1.00  0.00     0.295 C 
HETATM   23  C19 UNL     1      23.351   6.272  47.567  1.00  0.00     0.197 C 
HETATM   24  O3  UNL     1      22.315   5.667  48.295  1.00  0.00    -0.389 OA
HETATM   25  C20 UNL     1      21.976   6.369  49.436  1.00  0.00     0.169 C 
HETATM   26  C21 UNL     1      20.796   5.834  50.181  1.00  0.00     0.049 C 
HETATM   27  H17 UNL     1      25.504   4.613  47.712  1.00  0.00     0.315 HD
ENDROOT
BRANCH   1  28
HETATM   28  C1  UNL     1      23.656   4.378  53.584  1.00  0.00     0.119 C 
HETATM   29  N1  UNL     1      23.978   5.600  53.393  1.00  0.00    -0.312 NA
HETATM   30  H1  UNL     1      24.346   6.211  54.140  1.00  0.00     0.186 HD
ENDBRANCH   1  28
BRANCH  16  31
HETATM   31  O1  UNL     1      23.773   2.804  50.262  1.00  0.00    -0.358 OA
HETATM   32  H10 UNL     1      23.115   2.060  50.037  1.00  0.00     0.213 HD
ENDBRANCH  16  31
TORSDOF 2
ENDMDL
