ROOT
HETATM    1  C1  UNL     1      20.004   3.608  52.039  1.00  0.00     0.064 C 
HETATM    2  C2  UNL     1      20.834   2.831  51.068  1.00  0.00     0.232 A 
HETATM    3  O1  UNL     1      21.754   3.732  50.481  1.00  0.00    -0.308 OA
HETATM    4  C3  UNL     1      23.014   3.238  50.783  1.00  0.00     0.175 A 
HETATM    5  C12 UNL     1      23.035   2.171  51.554  1.00  0.00     0.100 A 
HETATM    6  C13 UNL     1      23.852   1.266  52.175  1.00  0.00     0.012 A 
HETATM    7  C14 UNL     1      25.156   1.263  52.291  1.00  0.00    -0.040 C 
HETATM    8  C15 UNL     1      26.258   2.140  51.869  1.00  0.00     0.158 C 
HETATM    9  N2  UNL     1      27.032   2.261  53.137  1.00  0.00    -0.357 N 
HETATM   10  C16 UNL     1      26.773   1.115  53.933  1.00  0.00     0.221 C 
HETATM   11  O2  UNL     1      27.058   1.061  55.159  1.00  0.00    -0.273 OA
HETATM   12  C17 UNL     1      26.183   0.340  52.814  1.00  0.00     0.139 C 
HETATM   13  C18 UNL     1      22.956   0.389  52.737  1.00  0.00     0.004 A 
HETATM   14  C19 UNL     1      23.006  -0.747  53.505  1.00  0.00     0.014 A 
HETATM   15  C20 UNL     1      21.956  -1.490  53.984  1.00  0.00     0.001 A 
HETATM   16  C21 UNL     1      20.688  -1.056  53.664  1.00  0.00     0.002 A 
HETATM   17  C22 UNL     1      20.545   0.064  52.906  1.00  0.00     0.030 A 
HETATM   18  C23 UNL     1      21.657   0.781  52.446  1.00  0.00     0.048 A 
HETATM   19  N3  UNL     1      21.731   1.894  51.710  1.00  0.00    -0.314 N 
HETATM   20  H15 UNL     1      27.652   3.125  53.314  1.00  0.00     0.162 HD
ENDROOT
BRANCH   4  21
HETATM   21  N1  UNL     1      24.019   4.014  50.172  1.00  0.00    -0.325 N 
HETATM   22  C4  UNL     1      24.986   3.431  49.227  1.00  0.00     0.136 C 
HETATM   23  C5  UNL     1      26.087   4.437  49.157  1.00  0.00     0.061 C 
HETATM   24  C6  UNL     1      25.482   5.661  49.734  1.00  0.00    -0.030 A 
HETATM   25  C7  UNL     1      25.975   6.960  49.739  1.00  0.00     0.009 A 
HETATM   26  C11 UNL     1      24.253   5.419  50.339  1.00  0.00     0.042 A 
HETATM   27  C8  UNL     1      25.243   7.976  50.341  1.00  0.00     0.001 A 
HETATM   28  C9  UNL     1      24.024   7.733  50.940  1.00  0.00     0.002 A 
HETATM   29  C10 UNL     1      23.536   6.437  50.932  1.00  0.00     0.030 A 
ENDBRANCH   4  21
TORSDOF 1
ENDMDL
