ROOT
HETATM    1  N1  UNL     1      24.928   3.199  50.211  1.00  0.00    -0.192 NA
HETATM    2  C1  UNL     1      24.291   2.452  50.890  1.00  0.00     0.097 C 
HETATM    3  C2  UNL     1      23.484   1.525  51.711  1.00  0.00     0.048 A 
HETATM    4  C3  UNL     1      22.166   1.406  51.533  1.00  0.00     0.023 A 
HETATM    5  C4  UNL     1      20.777   0.955  51.696  1.00  0.00     0.040 A 
HETATM    6  C5  UNL     1      20.239   0.082  52.518  1.00  0.00     0.098 A 
HETATM    7  C6  UNL     1      20.589  -0.845  53.617  1.00  0.00     0.098 A 
HETATM    8  C7  UNL     1      21.723  -1.172  54.253  1.00  0.00     0.039 A 
HETATM    9  C8  UNL     1      23.173  -0.889  54.301  1.00  0.00     0.001 A 
HETATM   10  C9  UNL     1      23.879  -0.050  53.536  1.00  0.00     0.004 A 
HETATM   11  C10 UNL     1      24.482   0.902  52.622  1.00  0.00     0.148 A 
ENDROOT
BRANCH  11  12
HETATM   12  N2  UNL     1      25.204   2.002  53.293  1.00  0.00    -0.378 N 
HETATM   13  H9  UNL     1      25.195   2.973  53.669  1.00  0.00     0.160 HD
BRANCH  12  14
HETATM   14  C11 UNL     1      26.529   1.641  53.613  1.00  0.00     0.043 C 
HETATM   15  C12 UNL     1      27.680   1.999  53.012  1.00  0.00     0.089 C 
HETATM   16  C13 UNL     1      28.972   1.502  53.508  1.00  0.00     0.050 C 
HETATM   17  C14 UNL     1      29.022   0.382  54.176  1.00  0.00    -0.027 C 
HETATM   18  C15 UNL     1      27.943   0.013  54.838  1.00  0.00    -0.008 C 
HETATM   19  C16 UNL     1      26.619   0.736  54.781  1.00  0.00     0.087 C 
BRANCH  15  20
HETATM   20  O3  UNL     1      27.458   2.853  51.928  1.00  0.00    -0.359 OA
HETATM   21  H10 UNL     1      26.846   2.529  51.193  1.00  0.00     0.217 HD
ENDBRANCH  15  20
ENDBRANCH  12  14
ENDBRANCH  11  12
BRANCH   6  22
HETATM   22  O1  UNL     1      18.843   0.010  52.264  1.00  0.00    -0.358 OA
HETATM   23  H3  UNL     1      18.467  -0.192  51.363  1.00  0.00     0.217 HD
ENDBRANCH   6  22
BRANCH   7  24
HETATM   24  O2  UNL     1      19.482  -1.569  54.135  1.00  0.00    -0.358 OA
HETATM   25  H4  UNL     1      19.040  -2.216  53.469  1.00  0.00     0.217 HD
ENDBRANCH   7  24
TORSDOF 5
ENDMDL
