ROOT
HETATM    1  C6  UNL     1      24.590   1.714  51.414  1.00  0.00     0.022 C 
HETATM    2  C7  UNL     1      24.213   2.960  51.243  1.00  0.00     0.094 C 
HETATM    3  C8  UNL     1      23.798   3.972  52.169  1.00  0.00     0.087 C 
HETATM    4  N1  UNL     1      23.469   4.781  52.935  1.00  0.00    -0.192 NA
ENDROOT
BRANCH   1   5
HETATM    5  C5  UNL     1      24.740   0.864  52.576  1.00  0.00    -0.032 A 
HETATM    6  C4  UNL     1      25.978   0.742  53.216  1.00  0.00     0.051 A 
HETATM    7  C3  UNL     1      26.098  -0.069  54.312  1.00  0.00     0.103 A 
HETATM    8  C18 UNL     1      25.023  -0.767  54.797  1.00  0.00     0.106 A 
HETATM    9  C10 UNL     1      23.765  -0.738  54.273  1.00  0.00    -0.012 A 
HETATM   10  C9  UNL     1      23.721   0.116  53.149  1.00  0.00     0.022 A 
BRANCH   7  11
HETATM   11  O1  UNL     1      27.267  -0.260  55.011  1.00  0.00    -0.349 OA
BRANCH  11  12
HETATM   12  C2  UNL     1      28.539   0.042  54.521  1.00  0.00     0.171 C 
HETATM   13  C1  UNL     1      29.075  -1.027  53.607  1.00  0.00     0.034 C 
ENDBRANCH  11  12
ENDBRANCH   7  11
BRANCH   8  14
HETATM   14  O2  UNL     1      25.124  -1.592  55.898  1.00  0.00    -0.357 OA
HETATM   15  H17 UNL     1      25.701  -1.411  56.704  1.00  0.00     0.217 HD
ENDBRANCH   8  14
BRANCH   9  16
HETATM   16  C11 UNL     1      22.444  -1.323  54.587  1.00  0.00     0.121 C 
BRANCH  16  17
HETATM   17  S1  UNL     1      21.112  -0.171  54.597  1.00  0.00    -0.125 SA
BRANCH  17  18
HETATM   18  C12 UNL     1      19.826  -0.317  53.445  1.00  0.00     0.000 A 
HETATM   19  C13 UNL     1      20.190   0.454  52.335  1.00  0.00     0.018 A 
HETATM   20  C14 UNL     1      19.376   0.540  51.197  1.00  0.00     0.001 A 
HETATM   21  C15 UNL     1      18.172  -0.156  51.159  1.00  0.00     0.000 A 
HETATM   22  C16 UNL     1      17.783  -0.927  52.235  1.00  0.00     0.001 A 
HETATM   23  C17 UNL     1      18.624  -0.969  53.317  1.00  0.00     0.018 A 
ENDBRANCH  17  18
ENDBRANCH  16  17
ENDBRANCH   9  16
ENDBRANCH   1   5
TORSDOF 7
ENDMDL
