ROOT
HETATM    1  C1  UNL     1      19.320  -0.500  53.081  1.00  0.00     0.018 C 
HETATM    2  C2  UNL     1      20.457  -0.541  53.442  1.00  0.00    -0.078 C 
HETATM    3  C3  UNL     1      21.818  -0.604  53.855  1.00  0.00     0.019 A 
HETATM    4  C4  UNL     1      22.165  -1.302  54.987  1.00  0.00     0.021 A 
HETATM    5  C5  UNL     1      23.482  -1.361  55.383  1.00  0.00     0.004 A 
HETATM    6  C6  UNL     1      24.430  -0.709  54.621  1.00  0.00     0.029 A 
HETATM    7  C7  UNL     1      24.159   0.008  53.476  1.00  0.00     0.031 A 
HETATM    8  C20 UNL     1      22.822   0.025  53.142  1.00  0.00     0.049 A 
ENDROOT
BRANCH   7   9
HETATM    9  N1  UNL     1      25.153   0.672  52.708  1.00  0.00    -0.355 N 
HETATM   10  H5  UNL     1      25.540   0.129  51.887  1.00  0.00     0.163 HD
BRANCH   9  11
HETATM   11  C8  UNL     1      25.622   1.988  52.995  1.00  0.00     0.170 C 
HETATM   12  C9  UNL     1      24.554   2.990  53.243  1.00  0.00     0.036 C 
HETATM   13  C10 UNL     1      23.987   3.404  52.106  1.00  0.00    -0.070 C 
HETATM   14  C16 UNL     1      24.488   2.831  50.833  1.00  0.00     0.063 C 
HETATM   15  C17 UNL     1      25.982   2.865  50.774  1.00  0.00     0.009 C 
HETATM   16  C18 UNL     1      26.548   2.424  51.906  1.00  0.00     0.085 C 
HETATM   17  N4  UNL     1      27.899   2.267  52.335  1.00  0.00    -0.244 NA
HETATM   18  C19 UNL     1      27.922   2.004  53.603  1.00  0.00     0.205 C 
HETATM   19  N5  UNL     1      26.579   1.969  54.112  1.00  0.00    -0.350 N 
HETATM   20  H20 UNL     1      26.600   1.936  55.171  1.00  0.00     0.163 HD
BRANCH  13  21
HETATM   21  C11 UNL     1      22.873   4.423  52.085  1.00  0.00     0.090 C 
BRANCH  21  22
HETATM   22  C12 UNL     1      21.602   3.794  51.633  1.00  0.00     0.038 C 
HETATM   23  N2  UNL     1      21.116   3.859  50.437  1.00  0.00    -0.186 NA
HETATM   24  N3  UNL     1      19.920   3.168  50.345  1.00  0.00    -0.309 N 
HETATM   25  C13 UNL     1      19.444   2.751  49.022  1.00  0.00     0.173 C 
HETATM   26  C14 UNL     1      19.410   3.028  51.696  1.00  0.00     0.150 C 
HETATM   27  C15 UNL     1      20.696   2.993  52.496  1.00  0.00     0.078 C 
ENDBRANCH  21  22
ENDBRANCH  13  21
ENDBRANCH   9  11
ENDBRANCH   7   9
TORSDOF 4
ENDMDL
