ROOT
HETATM    1  C5  UNL     1      23.125   2.690  52.661  1.00  0.00     0.010 C 
HETATM    2  C6  UNL     1      23.781   1.545  52.741  1.00  0.00    -0.048 C 
HETATM    3  C7  UNL     1      25.243   1.787  52.848  1.00  0.00     0.036 C 
HETATM    4  C8  UNL     1      26.289   1.322  53.523  1.00  0.00     0.113 C 
HETATM    5  C9  UNL     1      27.570   1.884  53.335  1.00  0.00     0.105 C 
HETATM    6  N1  UNL     1      28.598   2.352  53.171  1.00  0.00    -0.191 NA
HETATM    7  C10 UNL     1      26.407   0.231  54.539  1.00  0.00     0.266 C 
HETATM    8  O2  UNL     1      27.433  -0.024  55.153  1.00  0.00    -0.267 OA
HETATM    9  N2  UNL     1      25.356  -0.698  54.970  1.00  0.00    -0.326 N 
HETATM   10  C11 UNL     1      24.066  -0.948  54.334  1.00  0.00     0.013 C 
HETATM   11  C12 UNL     1      23.132  -1.171  55.287  1.00  0.00     0.025 C 
HETATM   12  C13 UNL     1      21.868  -0.435  54.945  1.00  0.00    -0.001 C 
HETATM   13  C14 UNL     1      21.893   0.291  53.801  1.00  0.00    -0.017 C 
HETATM   14  C15 UNL     1      22.921   0.363  52.703  1.00  0.00     0.046 C 
HETATM   15  C16 UNL     1      23.695  -0.938  52.852  1.00  0.00     0.070 C 
HETATM   16  H10 UNL     1      25.413  -1.282  55.806  1.00  0.00     0.169 HD
ENDROOT
BRANCH   1  17
HETATM   17  C4  UNL     1      23.703   4.003  52.673  1.00  0.00     0.032 C 
HETATM   18  C3  UNL     1      23.553   4.834  51.678  1.00  0.00     0.043 C 
BRANCH  18  19
HETATM   19  C2  UNL     1      24.062   6.204  51.509  1.00  0.00     0.060 C 
HETATM   20  C1  UNL     1      23.112   7.108  50.762  1.00  0.00     0.012 C 
ENDBRANCH  18  19
BRANCH  18  21
HETATM   21  O1  UNL     1      22.841   4.551  50.531  1.00  0.00    -0.365 OA
HETATM   22  H6  UNL     1      22.305   5.217  50.007  1.00  0.00     0.217 HD
ENDBRANCH  18  21
ENDBRANCH   1  17
TORSDOF 3
ENDMDL
