ROOT
HETATM    1  C9  UNL     1      25.790   4.504  49.749  1.00  0.00     0.131 A 
HETATM    2  C10 UNL     1      26.969   4.583  48.991  1.00  0.00     0.080 A 
HETATM    3  C11 UNL     1      27.434   5.864  48.746  1.00  0.00     0.063 A 
HETATM    4  N5  UNL     1      26.800   6.991  49.207  1.00  0.00    -0.244 NA
HETATM    5  C18 UNL     1      25.655   6.845  49.938  1.00  0.00     0.235 A 
HETATM    6  N6  UNL     1      25.191   5.620  50.183  1.00  0.00    -0.224 NA
ENDROOT
BRANCH   1   7
HETATM    7  N3  UNL     1      25.337   3.183  50.003  1.00  0.00    -0.341 N 
HETATM    8  H8  UNL     1      24.830   3.019  49.111  1.00  0.00     0.167 HD
BRANCH   7   9
HETATM    9  C8  UNL     1      25.462   2.267  51.080  1.00  0.00     0.035 A 
HETATM   10  C7  UNL     1      26.716   1.994  51.581  1.00  0.00     0.044 A 
HETATM   11  C6  UNL     1      26.784   1.106  52.633  1.00  0.00     0.015 A 
HETATM   12  C5  UNL     1      27.773   0.538  53.445  1.00  0.00     0.152 A 
HETATM   13  C21 UNL     1      25.616   0.543  53.124  1.00  0.00     0.075 A 
HETATM   14  N2  UNL     1      27.162  -0.283  54.322  1.00  0.00    -0.183 NA
HETATM   15  N1  UNL     1      25.851  -0.295  54.145  1.00  0.00    -0.265 N 
HETATM   16  C4  UNL     1      24.765  -0.996  54.818  1.00  0.00     0.179 A 
HETATM   17  C3  UNL     1      23.462  -0.624  54.187  1.00  0.00     0.005 A 
HETATM   18  C2  UNL     1      23.198   0.208  53.171  1.00  0.00    -0.019 A 
HETATM   19  C20 UNL     1      24.369   0.849  52.585  1.00  0.00     0.004 A 
HETATM   20  C19 UNL     1      24.264   1.746  51.519  1.00  0.00     0.044 A 
BRANCH  18  21
HETATM   21  C1  UNL     1      21.858   0.517  52.611  1.00  0.00     0.261 C 
HETATM   22  F1  UNL     1      21.609  -0.314  51.561  1.00  0.00    -0.251 F 
ENDBRANCH  18  21
ENDBRANCH   7   9
ENDBRANCH   1   7
BRANCH   3  23
HETATM   23  C12 UNL     1      28.695   6.024  47.936  1.00  0.00     0.227 C 
BRANCH  23  24
HETATM   24  O1  UNL     1      29.644   5.146  48.363  1.00  0.00    -0.383 OA
BRANCH  24  25
HETATM   25  C13 UNL     1      30.815   5.110  47.677  1.00  0.00     0.201 C 
BRANCH  25  26
HETATM   26  C14 UNL     1      32.029   5.715  48.320  1.00  0.00     0.162 C 
HETATM   27  C15 UNL     1      31.827   6.046  49.763  1.00  0.00     0.147 C 
HETATM   28  N4  UNL     1      31.593   7.402  50.059  1.00  0.00    -0.417 N 
HETATM   29  C16 UNL     1      32.027   8.394  49.150  1.00  0.00     0.140 C 
HETATM   30  H17 UNL     1      30.930   7.653  50.787  1.00  0.00     0.153 HD
HETATM   31  C17 UNL     1      31.733   7.924  47.732  1.00  0.00     0.187 C 
HETATM   32  O2  UNL     1      32.500   6.768  47.560  1.00  0.00    -0.381 OA
ENDBRANCH  25  26
ENDBRANCH  24  25
ENDBRANCH  23  24
ENDBRANCH   3  23
TORSDOF 7
ENDMDL
