ROOT
HETATM    1  C6  UNL     1      25.576   4.304  49.458  1.00  0.00     0.067 C 
HETATM    2  N1  UNL     1      25.886   3.370  50.282  1.00  0.00    -0.173 NA
HETATM    3  N2  UNL     1      24.766   2.585  50.633  1.00  0.00    -0.237 N 
HETATM    4  C14 UNL     1      23.713   2.975  49.767  1.00  0.00     0.152 C 
HETATM    5  C22 UNL     1      24.143   4.278  49.123  1.00  0.00     0.094 C 
ENDROOT
BRANCH   3   6
HETATM    6  C7  UNL     1      24.854   1.625  51.680  1.00  0.00     0.182 C 
HETATM    7  N3  UNL     1      26.013   1.306  52.048  1.00  0.00    -0.245 NA
HETATM    8  C8  UNL     1      26.221   0.380  53.058  1.00  0.00     0.102 A 
HETATM    9  C9  UNL     1      27.240   0.936  54.022  1.00  0.00     0.013 A 
HETATM   10  C12 UNL     1      26.909  -0.879  52.667  1.00  0.00     0.035 A 
HETATM   11  C13 UNL     1      24.997   0.061  53.842  1.00  0.00     0.124 C 
HETATM   12  C10 UNL     1      28.309   0.135  54.152  1.00  0.00     0.022 A 
HETATM   13  C11 UNL     1      28.077  -0.998  53.290  1.00  0.00     0.032 A 
HETATM   14 CL1  UNL     1      29.293  -2.260  53.214  1.00  0.00    -0.085 Cl
HETATM   15  S1  UNL     1      23.727   0.675  52.695  1.00  0.00    -0.088 SA
ENDBRANCH   3   6
BRANCH   4  16
HETATM   16  C15 UNL     1      22.362   3.014  50.321  1.00  0.00    -0.027 A 
HETATM   17  C16 UNL     1      22.017   4.010  51.246  1.00  0.00     0.012 A 
HETATM   18  C17 UNL     1      20.775   4.165  51.843  1.00  0.00     0.037 A 
HETATM   19  C18 UNL     1      19.805   3.271  51.501  1.00  0.00     0.066 A 
HETATM   20  C19 UNL     1      20.057   2.274  50.612  1.00  0.00     0.043 A 
HETATM   21  C20 UNL     1      21.312   2.166  50.047  1.00  0.00    -0.051 A 
HETATM   22  C21 UNL     1      21.532   1.069  49.098  1.00  0.00     0.049 C 
BRANCH  19  23
HETATM   23  O2  UNL     1      18.569   3.445  52.111  1.00  0.00    -0.361 OA
HETATM   24  H14 UNL     1      18.193   4.371  52.150  1.00  0.00     0.217 HD
ENDBRANCH  19  23
ENDBRANCH   4  16
BRANCH   1  25
HETATM   25  C5  UNL     1      26.576   5.243  48.954  1.00  0.00    -0.010 A 
HETATM   26  C4  UNL     1      27.855   4.807  48.666  1.00  0.00     0.016 A 
HETATM   27  C3  UNL     1      28.866   5.613  48.188  1.00  0.00     0.037 A 
HETATM   28  C2  UNL     1      28.556   6.948  47.991  1.00  0.00     0.068 A 
HETATM   29  C24 UNL     1      27.269   7.394  48.280  1.00  0.00     0.037 A 
HETATM   30  C23 UNL     1      26.264   6.552  48.764  1.00  0.00     0.016 A 
BRANCH  28  31
HETATM   31  O1  UNL     1      29.531   7.810  47.512  1.00  0.00    -0.356 OA
HETATM   32  C1  UNL     1      30.434   8.390  48.412  1.00  0.00     0.210 C 
ENDBRANCH  28  31
ENDBRANCH   1  25
TORSDOF 5
ENDMDL
