ROOT
HETATM    1  C4  UNL     1      24.300   0.842  52.651  1.00  0.00     0.016 A 
HETATM    2  C5  UNL     1      23.991   1.558  51.515  1.00  0.00     0.045 A 
HETATM    3  C14 UNL     1      22.716   1.480  51.000  1.00  0.00     0.033 A 
HETATM    4  C15 UNL     1      21.788   0.676  51.656  1.00  0.00     0.035 A 
HETATM    5  C16 UNL     1      22.066  -0.056  52.798  1.00  0.00     0.067 A 
HETATM    6  N5  UNL     1      21.129  -0.815  53.388  1.00  0.00    -0.260 NA
HETATM    7  C17 UNL     1      21.405  -1.527  54.506  1.00  0.00     0.117 A 
HETATM    8  C18 UNL     1      22.677  -1.467  55.045  1.00  0.00     0.020 A 
HETATM    9  C19 UNL     1      23.623  -0.682  54.423  1.00  0.00     0.016 A 
HETATM   10  C20 UNL     1      23.361   0.051  53.282  1.00  0.00     0.006 A 
ENDROOT
BRANCH   2  11
HETATM   11  N2  UNL     1      24.996   2.359  50.911  1.00  0.00    -0.339 N 
HETATM   12  H5  UNL     1      25.873   1.931  50.544  1.00  0.00     0.167 HD
BRANCH  11  13
HETATM   13  C6  UNL     1      24.939   3.747  50.742  1.00  0.00     0.142 A 
HETATM   14  N3  UNL     1      23.918   4.301  51.420  1.00  0.00    -0.224 NA
HETATM   15  C7  UNL     1      23.699   5.648  51.380  1.00  0.00     0.236 A 
HETATM   16  N4  UNL     1      24.505   6.447  50.660  1.00  0.00    -0.241 NA
HETATM   17  C8  UNL     1      25.535   5.914  49.975  1.00  0.00     0.072 A 
HETATM   18  C9  UNL     1      26.390   6.708  49.223  1.00  0.00     0.032 A 
HETATM   19  C13 UNL     1      25.775   4.556  50.000  1.00  0.00     0.039 A 
HETATM   20  C10 UNL     1      27.422   6.092  48.548  1.00  0.00     0.002 A 
HETATM   21  C11 UNL     1      27.636   4.725  48.594  1.00  0.00     0.001 A 
HETATM   22  C12 UNL     1      26.785   3.915  49.347  1.00  0.00     0.018 A 
ENDBRANCH  11  13
ENDBRANCH   2  11
BRANCH   1  23
HETATM   23  C3  UNL     1      25.611   0.836  53.298  1.00  0.00     0.014 A 
HETATM   24  C2  UNL     1      26.636  -0.086  53.196  1.00  0.00     0.125 A 
HETATM   25  N1  UNL     1      27.681   0.266  53.952  1.00  0.00    -0.285 N 
HETATM   26  C1  UNL     1      28.945  -0.393  54.144  1.00  0.00     0.179 C 
HETATM   27  N6  UNL     1      27.347   1.399  54.536  1.00  0.00    -0.185 NA
HETATM   28  C21 UNL     1      26.098   1.786  54.171  1.00  0.00     0.152 A 
ENDBRANCH   1  23
TORSDOF 3
ENDMDL
