ROOT
HETATM    1  C3  UNL     1      21.627   1.004  52.365  1.00  0.00     0.244 C 
HETATM    2  C4  UNL     1      21.351   2.494  52.333  1.00  0.00     0.225 C 
HETATM    3  O2  UNL     1      22.434   3.239  52.085  1.00  0.00    -0.345 OA
HETATM    4  C5  UNL     1      23.084   3.216  50.894  1.00  0.00     0.216 A 
HETATM    5  O3  UNL     1      23.202   4.580  50.526  1.00  0.00    -0.320 OA
HETATM    6  C9  UNL     1      24.375   5.151  50.176  1.00  0.00     0.139 A 
HETATM    7  C10 UNL     1      25.559   4.566  50.178  1.00  0.00     0.026 A 
HETATM    8  C11 UNL     1      25.522   3.149  50.609  1.00  0.00     0.032 A 
HETATM    9  C12 UNL     1      24.378   2.501  50.958  1.00  0.00     0.074 A 
HETATM   10  N1  UNL     1      25.034   1.251  51.302  1.00  0.00    -0.339 N 
HETATM   11  C13 UNL     1      25.511   0.993  52.618  1.00  0.00     0.141 A 
HETATM   12  N2  UNL     1      26.580   1.793  52.536  1.00  0.00    -0.224 NA
HETATM   13  C14 UNL     1      27.550   1.999  53.444  1.00  0.00     0.234 A 
HETATM   14  N3  UNL     1      27.484   1.331  54.612  1.00  0.00    -0.253 NA
HETATM   15  C15 UNL     1      26.419   0.516  54.732  1.00  0.00     0.133 A 
HETATM   16  C16 UNL     1      25.420   0.285  53.840  1.00  0.00     0.029 A 
HETATM   17  C17 UNL     1      24.404  -0.671  54.266  1.00  0.00     0.041 C 
HETATM   18  C18 UNL     1      23.089  -0.464  54.077  1.00  0.00     0.004 C 
HETATM   19  C19 UNL     1      22.175  -1.497  54.550  1.00  0.00     0.068 C 
HETATM   20  N4  UNL     1      22.493   0.645  53.462  1.00  0.00    -0.366 N 
HETATM   21  H17 UNL     1      25.139   0.624  50.493  1.00  0.00     0.167 HD
HETATM   22  H24 UNL     1      22.946   1.305  54.150  1.00  0.00     0.162 HD
ENDROOT
BRANCH   1  23
HETATM   23  O1  UNL     1      20.536   0.231  52.245  1.00  0.00    -0.365 OA
BRANCH  23  24
HETATM   24  C2  UNL     1      19.602   0.555  51.306  1.00  0.00     0.166 C 
HETATM   25  C1  UNL     1      18.339  -0.213  51.538  1.00  0.00     0.033 C 
ENDBRANCH  23  24
ENDBRANCH   1  23
BRANCH   4  26
HETATM   26  C6  UNL     1      22.293   2.612  49.726  1.00  0.00     0.055 A 
HETATM   27  C7  UNL     1      21.667   3.474  48.709  1.00  0.00     0.011 A 
HETATM   28  C8  UNL     1      22.944   2.831  48.319  1.00  0.00     0.011 A 
ENDBRANCH   4  26
TORSDOF 3
ENDMDL
