ROOT
HETATM    1  N4  UNL     1      23.383   2.574  51.689  1.00  0.00    -0.351 N 
HETATM    2  H15 UNL     1      22.371   2.285  51.811  1.00  0.00     0.163 HD
ENDROOT
BRANCH   1   3
HETATM    3  C8  UNL     1      23.958   3.758  51.147  1.00  0.00     0.310 C 
HETATM    4  N1  UNL     1      23.889   3.966  49.767  1.00  0.00    -0.374 N 
HETATM    5  C4  UNL     1      23.280   3.034  48.915  1.00  0.00     0.140 C 
HETATM    6  C5  UNL     1      21.820   3.464  48.727  1.00  0.00     0.138 C 
HETATM    7  N2  UNL     1      21.128   3.615  49.967  1.00  0.00    -0.395 N 
HETATM    8  C6  UNL     1      21.116   4.481  51.095  1.00  0.00     0.117 C 
HETATM    9  H12 UNL     1      20.398   2.865  50.104  1.00  0.00     0.159 HD
HETATM   10  C7  UNL     1      22.004   5.294  51.633  1.00  0.00     0.100 C 
HETATM   11  N3  UNL     1      23.202   4.876  51.769  1.00  0.00    -0.241 NA
BRANCH   4  12
HETATM   12  C3  UNL     1      24.553   5.079  49.226  1.00  0.00     0.120 C 
BRANCH  12  13
HETATM   13  C2  UNL     1      25.970   5.307  49.685  1.00  0.00     0.015 C 
HETATM   14  C1  UNL     1      26.910   4.282  49.074  1.00  0.00     0.006 C 
ENDBRANCH  12  13
ENDBRANCH   4  12
ENDBRANCH   1   3
BRANCH   1  15
HETATM   15  C9  UNL     1      24.291   1.576  52.168  1.00  0.00     0.032 A 
HETATM   16  C10 UNL     1      25.521   1.330  51.598  1.00  0.00     0.032 A 
HETATM   17  C11 UNL     1      26.404   0.380  52.053  1.00  0.00     0.041 A 
HETATM   18  C12 UNL     1      26.067  -0.386  53.139  1.00  0.00     0.090 A 
HETATM   19  C17 UNL     1      24.837  -0.206  53.784  1.00  0.00     0.069 A 
HETATM   20 CL1  UNL     1      24.394  -1.168  55.163  1.00  0.00    -0.081 Cl
HETATM   21  C18 UNL     1      24.024   0.771  53.251  1.00  0.00     0.056 A 
BRANCH  18  22
HETATM   22  O1  UNL     1      26.928  -1.375  53.657  1.00  0.00    -0.349 OA
BRANCH  22  23
HETATM   23  C13 UNL     1      28.080  -1.641  52.892  1.00  0.00     0.179 C 
BRANCH  23  24
HETATM   24  C14 UNL     1      29.370  -1.323  53.616  1.00  0.00     0.056 C 
BRANCH  24  25
HETATM   25  C15 UNL     1      29.711   0.116  53.506  1.00  0.00     0.005 C 
HETATM   26  C16 UNL     1      29.374   1.069  54.302  1.00  0.00     0.184 C 
HETATM   27  F1  UNL     1      28.614   0.542  55.319  1.00  0.00    -0.220 F 
ENDBRANCH  24  25
ENDBRANCH  23  24
ENDBRANCH  22  23
ENDBRANCH  18  22
ENDBRANCH   1  15
TORSDOF 8
ENDMDL
