ROOT
HETATM    1  C8  UNL     1      24.898  -0.679  53.950  1.00  0.00     0.077 C 
HETATM    2  C9  UNL     1      24.740   0.276  53.035  1.00  0.00     0.017 C 
HETATM    3  C10 UNL     1      24.057   1.306  52.251  1.00  0.00     0.048 C 
HETATM    4  C11 UNL     1      23.016   2.043  51.924  1.00  0.00     0.033 C 
HETATM    5  C12 UNL     1      21.684   2.575  51.933  1.00  0.00     0.146 C 
HETATM    6  O2  UNL     1      21.628   3.450  51.000  1.00  0.00    -0.294 OA
HETATM    7  C13 UNL     1      20.447   2.368  52.710  1.00  0.00     0.083 C 
HETATM    8  C14 UNL     1      19.659   1.161  52.241  1.00  0.00     0.008 C 
HETATM    9  C15 UNL     1      20.541  -0.069  52.334  1.00  0.00     0.000 C 
HETATM   10  C16 UNL     1      20.971  -0.196  53.761  1.00  0.00     0.000 C 
HETATM   11  C17 UNL     1      22.106  -1.193  53.831  1.00  0.00     0.002 C 
HETATM   12  C18 UNL     1      22.770  -0.963  55.198  1.00  0.00     0.042 C 
HETATM   13  C19 UNL     1      24.172  -1.452  55.028  1.00  0.00     0.273 C 
ENDROOT
BRANCH   1  14
HETATM   14  O1  UNL     1      26.191  -1.173  53.940  1.00  0.00    -0.340 OA
BRANCH  14  15
HETATM   15  C7  UNL     1      27.346  -0.428  53.694  1.00  0.00     0.179 C 
HETATM   16  C2  UNL     1      28.422  -1.373  53.275  1.00  0.00    -0.054 C 
HETATM   17  C1  UNL     1      28.216  -2.828  52.961  1.00  0.00     0.046 C 
HETATM   18  C3  UNL     1      29.637  -0.807  53.198  1.00  0.00    -0.018 C 
HETATM   19  C4  UNL     1      29.807   0.660  53.522  1.00  0.00     0.054 C 
HETATM   20  C5  UNL     1      29.068   0.829  54.823  1.00  0.00    -0.024 C 
HETATM   21  C6  UNL     1      27.855   0.286  54.889  1.00  0.00     0.006 C 
ENDBRANCH  14  15
ENDBRANCH   1  14
BRANCH  13  22
HETATM   22  N1  UNL     1      24.910  -1.352  56.254  1.00  0.00     0.089 N 
HETATM   23  H26 UNL     1      25.903  -1.522  56.029  1.00  0.00     0.313 HD
HETATM   24  H27 UNL     1      24.647  -2.070  56.967  1.00  0.00     0.313 HD
ENDBRANCH  13  22
TORSDOF 3
ENDMDL
