ROOT
HETATM    1  C5  UNL     1      23.544   0.851  53.818  1.00  0.00     0.234 C 
HETATM    2  C6  UNL     1      23.672   2.091  53.000  1.00  0.00     0.068 C 
HETATM    3  C7  UNL     1      25.164   2.373  52.740  1.00  0.00     0.116 C 
HETATM    4  N1  UNL     1      25.942   1.092  52.718  1.00  0.00    -0.356 N 
HETATM    5  C14 UNL     1      26.252  -0.245  53.662  1.00  0.00     0.412 A 
HETATM    6  C15 UNL     1      26.361   0.061  55.068  1.00  0.00     0.184 A 
HETATM    7  C16 UNL     1      26.381  -0.468  53.852  1.00  0.00     0.434 A 
HETATM    8  N2  UNL     1      26.426  -1.018  52.722  1.00  0.00    -0.131 N 
HETATM    9  C17 UNL     1      26.800  -2.107  52.099  1.00  0.00     0.408 A 
HETATM   10  N3  UNL     1      26.348  -0.926  52.510  1.00  0.00     0.154 N 
HETATM   11  N4  UNL     1      24.703  -0.052  53.444  1.00  0.00     0.052 N 
HETATM   12  H12 UNL     1      26.327   1.338  51.698  1.00  0.00     0.158 HD
HETATM   13  H15 UNL     1      23.884  -0.371  52.673  1.00  0.00     0.291 HD
ENDROOT
BRANCH   1  14
HETATM   14  C4  UNL     1      22.378   0.057  53.850  1.00  0.00    -0.027 A 
HETATM   15  C3  UNL     1      21.246   0.734  53.320  1.00  0.00     0.012 A 
HETATM   16  C2  UNL     1      20.045  -0.008  53.341  1.00  0.00     0.037 A 
HETATM   17  C1  UNL     1      19.870  -1.343  53.833  1.00  0.00     0.065 A 
HETATM   18  C19 UNL     1      21.053  -1.800  54.294  1.00  0.00     0.037 A 
HETATM   19  C18 UNL     1      22.265  -1.192  54.330  1.00  0.00     0.012 A 
BRANCH  17  20
HETATM   20  O1  UNL     1      18.661  -1.948  53.793  1.00  0.00    -0.361 OA
HETATM   21  H1  UNL     1      18.487  -2.928  53.659  1.00  0.00     0.217 HD
ENDBRANCH  17  20
ENDBRANCH   1  14
BRANCH   3  22
HETATM   22  C8  UNL     1      25.363   3.132  51.526  1.00  0.00    -0.036 A 
HETATM   23  C9  UNL     1      24.521   4.129  51.091  1.00  0.00     0.012 A 
HETATM   24  C10 UNL     1      24.714   4.945  49.944  1.00  0.00     0.043 A 
HETATM   25  C11 UNL     1      25.888   4.580  49.316  1.00  0.00     0.116 A 
HETATM   26  F1  UNL     1      26.173   5.340  48.193  1.00  0.00    -0.206 F 
HETATM   27  C12 UNL     1      26.773   3.606  49.684  1.00  0.00     0.043 A 
HETATM   28  C13 UNL     1      26.505   2.879  50.798  1.00  0.00     0.012 A 
ENDBRANCH   3  22
TORSDOF 3
ENDMDL
