ROOT
HETATM    1  C7  UNL     1      24.997   1.260  52.280  1.00  0.00     0.058 A 
HETATM    2  C8  UNL     1      25.534   2.369  51.742  1.00  0.00     0.061 A 
HETATM    3  C9  UNL     1      24.463   3.381  51.637  1.00  0.00     0.027 A 
HETATM    4  C17 UNL     1      23.346   2.848  52.107  1.00  0.00     0.009 A 
HETATM    5  C18 UNL     1      23.546   1.465  52.564  1.00  0.00     0.094 A 
ENDROOT
BRANCH   1   6
HETATM    6  O1  UNL     1      25.585   0.022  52.588  1.00  0.00    -0.327 OA
BRANCH   6   7
HETATM    7  C6  UNL     1      25.391  -0.556  53.856  1.00  0.00     0.142 C 
HETATM    8  C5  UNL     1      26.556  -0.236  54.453  1.00  0.00     0.024 C 
BRANCH   8   9
HETATM    9  C4  UNL     1      27.819   0.473  54.157  1.00  0.00    -0.002 C 
HETATM   10  C3  UNL     1      29.026   0.188  53.617  1.00  0.00    -0.019 C 
BRANCH  10  11
HETATM   11  C2  UNL     1      28.733  -1.209  53.359  1.00  0.00     0.117 C 
HETATM   12  C1  UNL     1      29.462  -2.303  53.291  1.00  0.00     0.202 C 
BRANCH  12  13
HETATM   13  N1  UNL     1      28.411  -3.254  52.996  1.00  0.00     0.079 NA
HETATM   14  H1  UNL     1      28.126  -4.272  52.972  1.00  0.00     0.312 HD
HETATM   15  H2  UNL     1      28.151  -4.286  52.982  1.00  0.00     0.312 HD
ENDBRANCH  12  13
ENDBRANCH  10  11
ENDBRANCH   8   9
ENDBRANCH   6   7
ENDBRANCH   1   6
BRANCH   3  16
HETATM   16  N2  UNL     1      24.738   4.671  51.097  1.00  0.00    -0.386 N 
HETATM   17  H10 UNL     1      25.058   5.534  51.613  1.00  0.00     0.160 HD
BRANCH  16  18
HETATM   18  C10 UNL     1      24.556   4.816  49.662  1.00  0.00     0.158 C 
BRANCH  18  19
HETATM   19  C11 UNL     1      25.836   5.324  49.100  1.00  0.00    -0.041 A 
HETATM   20  C12 UNL     1      25.936   6.604  48.569  1.00  0.00     0.010 A 
HETATM   21  C13 UNL     1      27.136   7.030  48.061  1.00  0.00     0.024 A 
HETATM   22  C14 UNL     1      28.283   6.253  48.039  1.00  0.00     0.034 A 
HETATM   23 CL1  UNL     1      29.819   6.787  47.394  1.00  0.00    -0.084 Cl
HETATM   24  C15 UNL     1      28.201   4.970  48.565  1.00  0.00     0.024 A 
HETATM   25  C16 UNL     1      26.985   4.561  49.071  1.00  0.00     0.010 A 
ENDBRANCH  18  19
ENDBRANCH  16  18
ENDBRANCH   3  16
TORSDOF 8
ENDMDL
