ROOT
HETATM    1  C2  UNL     1      23.362   3.276  51.597  1.00  0.00     0.016 A 
HETATM    2  C3  UNL     1      24.253   2.297  51.949  1.00  0.00    -0.009 A 
HETATM    3  C4  UNL     1      25.637   2.419  51.256  1.00  0.00     0.119 A 
HETATM    4  N1  UNL     1      26.772   2.497  52.103  1.00  0.00    -0.390 N 
HETATM    5  C5  UNL     1      27.224   1.486  53.058  1.00  0.00     0.040 A 
HETATM    6  C6  UNL     1      28.535   1.512  53.440  1.00  0.00     0.049 A 
HETATM    7  C7  UNL     1      29.042   0.681  54.422  1.00  0.00     0.122 A 
HETATM    8  N2  UNL     1      28.128  -0.142  54.966  1.00  0.00    -0.236 NA
HETATM    9  C8  UNL     1      26.865  -0.199  54.633  1.00  0.00     0.178 A 
HETATM   10  O1  UNL     1      25.745  -0.807  54.922  1.00  0.00    -0.299 OA
HETATM   11  C9  UNL     1      24.801  -0.377  54.207  1.00  0.00     0.048 A 
HETATM   12  C10 UNL     1      25.052   0.664  53.201  1.00  0.00     0.028 A 
HETATM   13  C11 UNL     1      26.337   0.568  53.688  1.00  0.00     0.032 A 
HETATM   14  C12 UNL     1      24.603   1.648  52.335  1.00  0.00     0.076 A 
HETATM   15  C13 UNL     1      23.273   2.096  52.093  1.00  0.00     0.014 A 
HETATM   16  C14 UNL     1      23.624   1.064  52.645  1.00  0.00    -0.012 A 
HETATM   17  C15 UNL     1      22.303   0.424  52.576  1.00  0.00     0.017 C 
HETATM   18  C16 UNL     1      21.916  -0.537  53.573  1.00  0.00    -0.004 C 
HETATM   19  C17 UNL     1      22.267  -1.280  54.535  1.00  0.00     0.006 C 
HETATM   20  C18 UNL     1      23.611  -0.892  54.464  1.00  0.00     0.055 C 
HETATM   21  H6  UNL     1      27.403   3.366  52.089  1.00  0.00     0.159 HD
ENDROOT
BRANCH   1  22
HETATM   22  C1  UNL     1      23.434   4.415  50.692  1.00  0.00     0.120 C 
HETATM   23 CL1  UNL     1      23.330   4.005  48.953  1.00  0.00    -0.130 Cl
ENDBRANCH   1  22
TORSDOF 1
ENDMDL
