ROOT
HETATM    1  C1  UNL     1      25.692   6.796  49.448  1.00  0.00     0.117 C 
HETATM    2  N1  UNL     1      25.444   6.034  50.456  1.00  0.00    -0.242 NA
HETATM    3  C2  UNL     1      25.113   5.008  49.513  1.00  0.00     0.083 C 
HETATM    4  C3  UNL     1      24.980   3.807  48.961  1.00  0.00     0.017 C 
HETATM    5  C4  UNL     1      25.579   3.314  50.161  1.00  0.00     0.044 C 
HETATM    6  C5  UNL     1      26.029   2.388  50.944  1.00  0.00    -0.015 C 
HETATM    7  C6  UNL     1      26.434   1.158  51.571  1.00  0.00     0.021 C 
HETATM    8  C7  UNL     1      26.970   1.264  52.764  1.00  0.00     0.006 C 
HETATM    9  C8  UNL     1      27.265   2.423  53.633  1.00  0.00     0.057 C 
HETATM   10  C9  UNL     1      28.808   2.468  53.663  1.00  0.00     0.007 C 
HETATM   11  C10 UNL     1      29.214   1.166  54.310  1.00  0.00     0.020 C 
HETATM   12  C11 UNL     1      28.697  -0.062  53.626  1.00  0.00     0.122 C 
HETATM   13  N2  UNL     1      27.304  -0.027  53.321  1.00  0.00    -0.384 N 
HETATM   14  C12 UNL     1      26.113  -0.854  53.387  1.00  0.00     0.125 C 
HETATM   15  C13 UNL     1      25.220  -0.373  54.505  1.00  0.00     0.046 C 
HETATM   16  C14 UNL     1      23.930  -1.123  54.512  1.00  0.00     0.170 C 
HETATM   17  O1  UNL     1      23.151  -1.048  53.372  1.00  0.00    -0.381 OA
HETATM   18  C15 UNL     1      22.661   0.213  52.920  1.00  0.00     0.068 A 
HETATM   19  C16 UNL     1      21.366  -0.129  52.370  1.00  0.00     0.008 A 
HETATM   20  C17 UNL     1      20.752   1.032  51.871  1.00  0.00     0.028 A 
HETATM   21  C18 UNL     1      21.213   2.341  51.852  1.00  0.00     0.045 A 
HETATM   22  C19 UNL     1      22.518   2.374  52.463  1.00  0.00     0.012 A 
HETATM   23  C20 UNL     1      23.429   1.434  53.063  1.00  0.00     0.136 A 
HETATM   24  N3  UNL     1      20.716   3.561  51.389  1.00  0.00    -0.188 N 
HETATM   25  C21 UNL     1      21.101   3.896  50.059  1.00  0.00     0.728 A 
HETATM   26  N4  UNL     1      20.423   3.258  49.105  1.00  0.00    -0.075 NA
HETATM   27  C22 UNL     1      20.728   3.519  47.816  1.00  0.00     0.140 A 
HETATM   28  C23 UNL     1      21.736   4.442  47.598  1.00  0.00     0.071 A 
HETATM   29  C24 UNL     1      22.426   5.092  48.590  1.00  0.00     0.148 A 
HETATM   30  N5  UNL     1      22.102   4.813  49.867  1.00  0.00    -0.045 NA
HETATM   31  N6  UNL     1      23.421   5.998  48.159  1.00  0.00    -0.337 N 
HETATM   32  C25 UNL     1      24.640   6.261  48.891  1.00  0.00     0.094 C 
HETATM   33  H23 UNL     1      20.233   3.701  52.326  1.00  0.00     0.184 HD
HETATM   34  H26 UNL     1      23.323   6.530  47.275  1.00  0.00     0.167 HD
ENDROOT
TORSDOF 0
ENDMDL
