ROOT
HETATM    1  C6  UNL     1      23.572   1.178  51.916  1.00  0.00     0.082 A 
HETATM    2  C7  UNL     1      22.927   0.178  52.506  1.00  0.00    -0.030 A 
HETATM    3  C8  UNL     1      23.520  -0.653  53.562  1.00  0.00     0.085 C 
HETATM    4  C9  UNL     1      22.528  -1.161  54.553  1.00  0.00     0.093 C 
HETATM    5  N2  UNL     1      21.287  -0.991  54.888  1.00  0.00    -0.277 NA
HETATM    6  C10 UNL     1      20.415  -0.066  54.215  1.00  0.00     0.112 C 
HETATM    7  C11 UNL     1      20.514   0.382  52.969  1.00  0.00     0.005 C 
HETATM    8  C12 UNL     1      21.558   0.039  51.944  1.00  0.00     0.065 A 
HETATM    9  C13 UNL     1      21.535   1.130  50.936  1.00  0.00     0.001 A 
HETATM   10  C14 UNL     1      22.689   1.779  50.924  1.00  0.00    -0.006 A 
ENDROOT
BRANCH   1  11
HETATM   11  O1  UNL     1      24.843   1.717  52.061  1.00  0.00    -0.349 OA
BRANCH  11  12
HETATM   12  C5  UNL     1      25.151   2.383  53.247  1.00  0.00     0.183 C 
BRANCH  12  13
HETATM   13  C4  UNL     1      26.466   2.020  53.853  1.00  0.00     0.042 C 
HETATM   14  C3  UNL     1      26.406   0.787  54.703  1.00  0.00     0.039 C 
HETATM   15  C2  UNL     1      27.792   0.196  54.830  1.00  0.00     0.272 C 
HETATM   16  N1  UNL     1      28.354  -0.255  53.596  1.00  0.00     0.086 N 
HETATM   17  C1  UNL     1      29.770   0.114  53.622  1.00  0.00     0.310 C 
HETATM   18  C16 UNL     1      27.754   0.467  52.487  1.00  0.00     0.303 C 
HETATM   19  C15 UNL     1      27.613   1.906  52.909  1.00  0.00     0.152 C 
BRANCH  19  20
HETATM   20  O2  UNL     1      27.617   2.807  51.863  1.00  0.00    -0.393 OA
HETATM   21  H21 UNL     1      28.277   3.493  52.067  1.00  0.00     0.210 HD
ENDBRANCH  19  20
ENDBRANCH  12  13
ENDBRANCH  11  12
ENDBRANCH   1  11
BRANCH  10  22
HETATM   22  P1  UNL     1      22.794   3.155  49.719  1.00  0.00    -0.104 P 
HETATM   23  H18 UNL     1      21.626   3.980  49.780  1.00  0.00     0.059 HD
HETATM   24  H19 UNL     1      24.042   3.844  49.880  1.00  0.00     0.059 HD
ENDBRANCH  10  22
TORSDOF 5
ENDMDL
