ROOT
HETATM    1  C7  UNL     1      24.147  -0.421  53.499  1.00  0.00     0.103 A 
HETATM    2  C8  UNL     1      23.297   0.301  52.730  1.00  0.00     0.133 A 
HETATM    3  N2  UNL     1      23.980   0.904  51.595  1.00  0.00    -0.380 N 
HETATM    4  C9  UNL     1      23.752   2.277  51.098  1.00  0.00     0.123 C 
HETATM    5  C10 UNL     1      22.275   2.492  50.979  1.00  0.00     0.054 C 
HETATM    6  C11 UNL     1      21.592   3.051  52.180  1.00  0.00     0.162 C 
HETATM    7  O1  UNL     1      20.717   2.127  52.804  1.00  0.00    -0.299 OA
HETATM    8  S1  UNL     1      21.505   0.574  53.021  1.00  0.00     0.089 SA
HETATM    9  N3  UNL     1      21.046  -0.214  54.406  1.00  0.00    -0.189 NA
HETATM   10  C14 UNL     1      22.246  -0.867  54.930  1.00  0.00     0.244 A 
HETATM   11  N4  UNL     1      23.462  -0.971  54.609  1.00  0.00    -0.238 NA
HETATM   12  H9  UNL     1      24.598   0.092  51.285  1.00  0.00     0.160 HD
ENDROOT
BRANCH   1  13
HETATM   13  C6  UNL     1      25.564  -0.576  53.252  1.00  0.00     0.015 A 
HETATM   14  C2  UNL     1      26.404   0.136  54.262  1.00  0.00     0.199 A 
HETATM   15  C1  UNL     1      26.150   1.615  54.226  1.00  0.00     0.059 C 
HETATM   16  C3  UNL     1      27.786  -0.159  53.943  1.00  0.00     0.019 A 
HETATM   17  C4  UNL     1      27.871  -0.930  52.898  1.00  0.00    -0.001 A 
HETATM   18  C5  UNL     1      26.494  -1.132  52.543  1.00  0.00     0.012 A 
BRANCH  14  19
HETATM   19  N1  UNL     1      26.121  -0.343  55.602  1.00  0.00     0.096 N 
HETATM   20  H4  UNL     1      26.968  -0.363  56.193  1.00  0.00     0.314 HD
HETATM   21  H5  UNL     1      25.579  -1.223  55.606  1.00  0.00     0.314 HD
ENDBRANCH  14  19
ENDBRANCH   1  13
BRANCH   6  22
HETATM   22  C12 UNL     1      20.651   4.185  51.756  1.00  0.00     0.136 C 
HETATM   23 CL1  UNL     1      21.553   5.674  51.380  1.00  0.00    -0.118 Cl
BRANCH  22  24
HETATM   24  C13 UNL     1      19.753   3.809  50.660  1.00  0.00     0.004 C 
BRANCH  24  25
HETATM   25  P1  UNL     1      18.114   3.877  50.892  1.00  0.00    -0.078 P 
HETATM   26  H17 UNL     1      17.536   4.760  51.906  1.00  0.00     0.066 HD
ENDBRANCH  24  25
ENDBRANCH  22  24
ENDBRANCH   6  22
TORSDOF 5
ENDMDL
