ROOT
HETATM    1  C1  UNL     1      21.930   5.520  51.568  1.00  0.00     0.182 C 
HETATM    2  N1  UNL     1      21.862   4.070  51.857  1.00  0.00    -0.255 N 
HETATM    3  N2  UNL     1      20.962   3.238  52.337  1.00  0.00    -0.152 NA
HETATM    4  C2  UNL     1      21.212   1.966  52.483  1.00  0.00     0.162 A 
HETATM    5  C3  UNL     1      22.431   2.215  51.981  1.00  0.00     0.060 A 
HETATM    6  C4  UNL     1      23.527   1.534  51.683  1.00  0.00     0.046 A 
HETATM    7  C5  UNL     1      24.570   2.011  51.249  1.00  0.00     0.034 A 
HETATM    8  N3  UNL     1      24.260   3.298  51.145  1.00  0.00    -0.275 N 
HETATM    9  C6  UNL     1      22.993   3.411  51.565  1.00  0.00     0.146 A 
HETATM   10  C7  UNL     1      25.507   3.820  50.719  1.00  0.00     0.194 A 
HETATM   11  F1  UNL     1      25.514   5.166  50.487  1.00  0.00    -0.186 F 
HETATM   12  C8  UNL     1      26.403   2.743  50.661  1.00  0.00     0.051 A 
HETATM   13  C9  UNL     1      25.921   1.401  51.037  1.00  0.00     0.098 A 
HETATM   14  C10 UNL     1      26.122   0.785  52.351  1.00  0.00    -0.022 A 
HETATM   15  C11 UNL     1      24.964   0.272  53.025  1.00  0.00     0.023 A 
HETATM   16  C12 UNL     1      23.896  -0.258  53.782  1.00  0.00    -0.008 A 
HETATM   17  C13 UNL     1      24.773  -0.520  54.770  1.00  0.00     0.015 A 
HETATM   18  C14 UNL     1      26.114  -0.198  54.609  1.00  0.00     0.025 A 
HETATM   19  C15 UNL     1      26.737   0.390  53.526  1.00  0.00     0.041 A 
HETATM   20 CL1  UNL     1      28.433   0.816  53.325  1.00  0.00    -0.084 Cl
HETATM   21  C16 UNL     1      22.476  -0.269  53.425  1.00  0.00     0.049 C 
HETATM   22  N4  UNL     1      21.545   0.522  52.632  1.00  0.00    -0.338 N 
HETATM   23  H11 UNL     1      20.903   0.119  51.981  1.00  0.00     0.167 HD
ENDROOT
BRANCH  21  24
HETATM   24  P1  UNL     1      21.946  -1.604  54.228  1.00  0.00    -0.043 P 
HETATM   25  H10 UNL     1      20.669  -1.734  54.852  1.00  0.00     0.069 HD
ENDBRANCH  21  24
TORSDOF 1
ENDMDL
