ROOT
HETATM    1  C3  UNL     1      23.326   1.706  51.861  1.00  0.00    -0.024 C 
HETATM    2  C4  UNL     1      23.848   1.808  53.040  1.00  0.00     0.003 C 
HETATM    3  C5  UNL     1      25.039   2.602  53.484  1.00  0.00     0.152 C 
HETATM    4  N1  UNL     1      26.213   2.301  52.657  1.00  0.00    -0.357 N 
HETATM    5  C13 UNL     1      26.361   2.613  51.256  1.00  0.00     0.192 C 
HETATM    6  C14 UNL     1      25.112   2.751  50.510  1.00  0.00     0.097 C 
HETATM    7  C16 UNL     1      23.814   2.413  50.673  1.00  0.00     0.105 C 
ENDROOT
BRANCH   4   8
HETATM    8  C6  UNL     1      27.282   1.659  53.330  1.00  0.00     0.138 C 
HETATM    9  N2  UNL     1      28.247   2.087  54.020  1.00  0.00    -0.226 NA
HETATM   10  C7  UNL     1      29.296   1.379  54.645  1.00  0.00     0.235 C 
HETATM   11  N3  UNL     1      29.351   0.062  54.493  1.00  0.00    -0.244 NA
HETATM   12  C8  UNL     1      28.310  -0.492  53.652  1.00  0.00     0.071 A 
HETATM   13  C9  UNL     1      28.214  -1.612  52.942  1.00  0.00     0.030 A 
HETATM   14  C12 UNL     1      27.060   0.244  53.476  1.00  0.00     0.159 A 
HETATM   15  C10 UNL     1      26.895  -1.599  52.282  1.00  0.00     0.001 A 
HETATM   16  C11 UNL     1      26.199  -0.494  52.587  1.00  0.00     0.013 A 
HETATM   17 CL1  UNL     1      26.314   0.129  55.180  1.00  0.00    -0.099 Cl
ENDBRANCH   4   8
BRANCH   6  18
HETATM   18  O1  UNL     1      25.364   3.415  49.317  1.00  0.00    -0.356 OA
HETATM   19  C15 UNL     1      26.396   4.386  49.326  1.00  0.00     0.209 C 
ENDBRANCH   6  18
BRANCH   1  20
HETATM   20  C2  UNL     1      22.182   0.820  51.867  1.00  0.00     0.007 C 
HETATM   21  C1  UNL     1      22.036  -0.280  52.655  1.00  0.00     0.039 C 
ENDBRANCH   1  20
BRANCH   7  22
HETATM   22  O2  UNL     1      22.916   2.739  49.700  1.00  0.00    -0.353 OA
HETATM   23  C17 UNL     1      21.969   3.771  49.699  1.00  0.00     0.210 C 
ENDBRANCH   7  22
TORSDOF 4
ENDMDL
