ROOT
HETATM    1  C5  UNL     1      24.604  -0.008  52.862  1.00  0.00     0.200 C 
HETATM    2  C6  UNL     1      23.670  -0.567  53.882  1.00  0.00     0.076 C 
HETATM    3  N1  UNL     1      22.956  -1.002  54.690  1.00  0.00    -0.196 NA
ENDROOT
BRANCH   1   4
HETATM    4  C4  UNL     1      25.948  -0.070  53.474  1.00  0.00    -0.030 A 
HETATM    5  C3  UNL     1      26.719   0.402  54.436  1.00  0.00     0.042 A 
HETATM    6  C2  UNL     1      28.115   0.206  54.913  1.00  0.00     0.289 A 
HETATM    7  O3  UNL     1      28.724  -0.778  54.093  1.00  0.00    -0.329 OA
HETATM    8  C15 UNL     1      28.028  -1.362  53.037  1.00  0.00     0.139 A 
HETATM    9  C14 UNL     1      26.759  -1.069  52.718  1.00  0.00     0.033 A 
BRANCH   6  10
HETATM   10  O1  UNL     1      28.833   1.385  54.868  1.00  0.00    -0.362 OA
HETATM   11  C1  UNL     1      28.620   2.090  53.683  1.00  0.00     0.205 C 
ENDBRANCH   6  10
ENDBRANCH   1   4
BRANCH   1  12
HETATM   12  C7  UNL     1      24.156   1.326  52.536  1.00  0.00     0.183 C 
HETATM   13  O2  UNL     1      24.036   2.184  53.443  1.00  0.00    -0.290 OA
BRANCH  12  14
HETATM   14  C8  UNL     1      23.803   1.860  51.247  1.00  0.00     0.033 A 
HETATM   15  C9  UNL     1      24.569   2.781  50.558  1.00  0.00     0.017 A 
HETATM   16  C10 UNL     1      24.302   3.347  49.336  1.00  0.00     0.001 A 
HETATM   17  C11 UNL     1      23.138   2.961  48.712  1.00  0.00     0.002 A 
HETATM   18  C12 UNL     1      22.304   2.046  49.316  1.00  0.00     0.025 A 
HETATM   19  C13 UNL     1      22.665   1.538  50.544  1.00  0.00     0.048 A 
HETATM   20 CL1  UNL     1      21.508   0.382  51.157  1.00  0.00    -0.083 Cl
ENDBRANCH  12  14
ENDBRANCH   1  12
TORSDOF 4
ENDMDL
