ROOT
HETATM    1  C5  UNL     1      22.151   2.318  51.924  1.00  0.00     0.071 C 
HETATM    2  C6  UNL     1      23.469   2.364  52.129  1.00  0.00     0.052 C 
HETATM    3  C7  UNL     1      24.516   2.842  51.237  1.00  0.00     0.039 A 
HETATM    4  C8  UNL     1      24.284   3.536  50.070  1.00  0.00     0.073 A 
HETATM    5  N1  UNL     1      25.381   3.898  49.372  1.00  0.00    -0.243 NA
HETATM    6  C9  UNL     1      26.604   3.580  49.823  1.00  0.00     0.235 A 
HETATM    7  N2  UNL     1      26.758   2.903  50.965  1.00  0.00    -0.224 NA
HETATM    8  C10 UNL     1      25.750   2.497  51.731  1.00  0.00     0.141 A 
HETATM    9  C17 UNL     1      22.971   3.952  49.457  1.00  0.00     0.228 C 
HETATM   10  O2  UNL     1      22.167   2.796  49.564  1.00  0.00    -0.379 OA
HETATM   11  C18 UNL     1      21.420   2.755  50.712  1.00  0.00     0.232 C 
ENDROOT
BRANCH   8  12
HETATM   12  N3  UNL     1      25.995   1.799  52.937  1.00  0.00    -0.340 N 
HETATM   13  H10 UNL     1      25.780   1.952  53.936  1.00  0.00     0.167 HD
BRANCH  12  14
HETATM   14  C11 UNL     1      26.688   0.561  52.970  1.00  0.00     0.035 A 
HETATM   15  C12 UNL     1      26.031  -0.588  52.566  1.00  0.00     0.032 A 
HETATM   16  C13 UNL     1      26.643  -1.821  52.547  1.00  0.00     0.046 A 
HETATM   17  C14 UNL     1      27.958  -1.968  52.935  1.00  0.00     0.138 A 
HETATM   18  F1  UNL     1      28.618  -3.149  52.940  1.00  0.00    -0.204 F 
HETATM   19  C15 UNL     1      28.655  -0.867  53.344  1.00  0.00     0.074 A 
HETATM   20 CL1  UNL     1      30.328  -0.961  53.854  1.00  0.00    -0.081 Cl
HETATM   21  C16 UNL     1      28.002   0.340  53.345  1.00  0.00     0.056 A 
ENDBRANCH  12  14
ENDBRANCH   8  12
BRANCH   1  22
HETATM   22  O1  UNL     1      21.344   1.821  52.922  1.00  0.00    -0.350 OA
BRANCH  22  23
HETATM   23  C4  UNL     1      20.815   0.535  53.012  1.00  0.00     0.202 C 
BRANCH  23  24
HETATM   24  C3  UNL     1      21.527  -0.137  54.146  1.00  0.00    -0.005 C 
HETATM   25  C2  UNL     1      22.668  -0.819  54.074  1.00  0.00    -0.033 C 
HETATM   26  C1  UNL     1      23.146  -1.380  55.364  1.00  0.00     0.036 C 
ENDBRANCH  23  24
ENDBRANCH  22  23
ENDBRANCH   1  22
TORSDOF 5
ENDMDL
