ROOT
HETATM    1  F1  UNL     1      26.219  -1.934  53.228  1.00  0.00    -0.204 F 
HETATM    2  C1  UNL     1      26.377  -0.600  53.088  1.00  0.00     0.139 C 
HETATM    3  C2  UNL     1      27.642  -0.135  53.036  1.00  0.00     0.063 C 
HETATM    4  C3  UNL     1      28.092   1.267  52.888  1.00  0.00     0.116 C 
HETATM    5  N1  UNL     1      27.536   2.254  52.329  1.00  0.00    -0.273 NA
HETATM    6  C4  UNL     1      26.477   2.851  51.613  1.00  0.00     0.237 C 
HETATM    7  N2  UNL     1      26.650   2.739  50.165  1.00  0.00    -0.258 NA
HETATM    8  C5  UNL     1      26.698   3.784  49.444  1.00  0.00     0.189 C 
HETATM    9  N3  UNL     1      26.707   5.122  48.962  1.00  0.00    -0.400 NA
HETATM   10  C6  UNL     1      25.947   6.074  49.429  1.00  0.00     0.326 C 
HETATM   11  C7  UNL     1      25.217   7.299  49.771  1.00  0.00     0.001 C 
HETATM   12  C8  UNL     1      24.320   7.223  50.745  1.00  0.00    -0.003 C 
HETATM   13  C9  UNL     1      24.095   5.889  51.443  1.00  0.00     0.194 C 
HETATM   14  O1  UNL     1      22.810   5.531  51.291  1.00  0.00    -0.387 OA
HETATM   15  C10 UNL     1      22.394   4.350  51.771  1.00  0.00     0.173 C 
HETATM   16  C11 UNL     1      22.771   3.100  51.076  1.00  0.00     0.024 C 
HETATM   17  C13 UNL     1      24.179   2.762  50.815  1.00  0.00     0.020 C 
HETATM   18  C14 UNL     1      25.081   2.612  52.023  1.00  0.00     0.056 C 
HETATM   19  C15 UNL     1      24.776   1.270  52.591  1.00  0.00     0.009 C 
HETATM   20  C16 UNL     1      25.050   0.052  53.026  1.00  0.00     0.069 C 
HETATM   21 CL1  UNL     1      23.695  -0.884  53.583  1.00  0.00    -0.081 Cl
ENDROOT
BRANCH  16  22
HETATM   22  C12 UNL     1      22.133   3.247  49.656  1.00  0.00     0.105 C 
BRANCH  22  23
HETATM   23  N4  UNL     1      23.147   3.696  48.723  1.00  0.00    -0.265 NA
HETATM   24  I1  UNL     1      22.345   5.227  47.557  1.00  0.00     0.017 I 
HETATM   25  H15 UNL     1      23.957   4.031  49.282  1.00  0.00     0.133 HD
ENDBRANCH  22  23
ENDBRANCH  16  22
TORSDOF 2
ENDMDL
