ROOT
HETATM    1  C2  UNL     1      22.591   2.163  50.842  1.00  0.00     0.081 C 
HETATM    2  C3  UNL     1      23.141   1.158  51.763  1.00  0.00     0.004 C 
HETATM    3  C4  UNL     1      22.709   0.592  52.879  1.00  0.00    -0.056 C 
HETATM    4  C5  UNL     1      21.361   0.573  53.463  1.00  0.00     0.007 C 
HETATM    5  C6  UNL     1      20.397   1.422  53.065  1.00  0.00     0.001 C 
HETATM    6  C7  UNL     1      20.469   2.650  52.242  1.00  0.00     0.004 C 
HETATM    7  C8  UNL     1      21.545   2.996  51.515  1.00  0.00    -0.056 C 
HETATM    8  C9  UNL     1      22.204   4.256  51.040  1.00  0.00     0.070 C 
HETATM    9  C10 UNL     1      23.429   3.417  50.751  1.00  0.00     0.155 C 
HETATM   10  O2  UNL     1      24.406   3.350  51.736  1.00  0.00    -0.356 OA
HETATM   11  C11 UNL     1      24.278   3.561  53.079  1.00  0.00     0.137 C 
HETATM   12  C12 UNL     1      24.850   2.566  53.781  1.00  0.00     0.056 C 
HETATM   13  C13 UNL     1      25.562   1.335  53.376  1.00  0.00     0.064 A 
HETATM   14  N1  UNL     1      26.830   1.620  53.025  1.00  0.00    -0.261 NA
HETATM   15  C14 UNL     1      27.647   0.613  52.621  1.00  0.00     0.117 A 
HETATM   16  C15 UNL     1      27.222  -0.697  52.557  1.00  0.00     0.020 A 
HETATM   17  C16 UNL     1      25.911  -0.901  52.934  1.00  0.00     0.011 A 
HETATM   18  C17 UNL     1      25.033   0.078  53.353  1.00  0.00    -0.025 A 
HETATM   19  C18 UNL     1      23.647  -0.161  53.748  1.00  0.00     0.079 C 
ENDROOT
BRANCH   1  20
HETATM   20  C1  UNL     1      22.191   1.639  49.520  1.00  0.00     0.252 C 
HETATM   21  O1  UNL     1      21.440   0.675  49.406  1.00  0.00    -0.305 OA
ENDBRANCH   1  20
TORSDOF 1
ENDMDL
