ROOT
HETATM    1  C1  UNL     1      30.656   5.383  47.822  1.00  0.00     0.066 C 
HETATM    2  C2  UNL     1      29.220   5.586  48.107  1.00  0.00     0.017 A 
HETATM    3  N1  UNL     1      28.410   4.727  48.630  1.00  0.00    -0.257 NA
HETATM    4  C3  UNL     1      27.101   5.231  48.771  1.00  0.00     0.064 A 
HETATM    5  C4  UNL     1      26.078   4.592  49.266  1.00  0.00     0.034 C 
HETATM    6  C13 UNL     1      27.172   6.588  48.248  1.00  0.00    -0.009 A 
HETATM    7  C14 UNL     1      26.189   7.465  48.169  1.00  0.00     0.094 C 
HETATM    8 CL1  UNL     1      24.523   7.379  48.619  1.00  0.00    -0.096 Cl
HETATM    9  C15 UNL     1      28.549   6.897  47.787  1.00  0.00     0.065 A 
HETATM   10  C16 UNL     1      29.181   8.000  48.604  1.00  0.00     0.021 C 
ENDROOT
BRANCH   5  11
HETATM   11  C5  UNL     1      26.306   3.221  49.720  1.00  0.00     0.027 C 
HETATM   12  C6  UNL     1      25.902   2.839  50.924  1.00  0.00     0.142 C 
BRANCH  12  13
HETATM   13  O1  UNL     1      26.080   1.569  51.420  1.00  0.00    -0.323 OA
BRANCH  13  14
HETATM   14  C7  UNL     1      27.085   1.284  52.324  1.00  0.00     0.077 A 
HETATM   15  C8  UNL     1      27.235  -0.090  52.513  1.00  0.00     0.037 A 
HETATM   16  C9  UNL     1      28.198  -0.573  53.387  1.00  0.00     0.006 A 
HETATM   17  C10 UNL     1      29.011   0.303  54.074  1.00  0.00     0.042 A 
HETATM   18  C11 UNL     1      28.853   1.658  53.879  1.00  0.00     0.119 A 
HETATM   19  F1  UNL     1      29.618   2.596  54.520  1.00  0.00    -0.206 F 
HETATM   20  C12 UNL     1      27.893   2.154  53.007  1.00  0.00     0.079 A 
ENDBRANCH  13  14
ENDBRANCH  12  13
ENDBRANCH   5  11
TORSDOF 3
ENDMDL
