ROOT
HETATM    1  N1  UNL     1      23.417   1.781  52.614  1.00  0.00    -0.227 N 
HETATM    2  N2  UNL     1      24.549   1.353  53.276  1.00  0.00    -0.177 NA
HETATM    3  C4  UNL     1      24.619   0.083  53.408  1.00  0.00     0.048 C 
HETATM    4  C10 UNL     1      23.393  -0.498  52.769  1.00  0.00     0.101 C 
HETATM    5  C11 UNL     1      22.482   0.710  52.631  1.00  0.00     0.111 C 
HETATM    6  C12 UNL     1      21.593   0.722  53.817  1.00  0.00     0.015 C 
HETATM    7  C13 UNL     1      20.313   0.371  53.887  1.00  0.00     0.042 C 
HETATM    8  C14 UNL     1      19.559  -0.108  52.717  1.00  0.00     0.128 C 
HETATM    9  F2  UNL     1      18.688  -1.148  52.933  1.00  0.00    -0.205 F 
HETATM   10  C15 UNL     1      19.776   0.494  51.574  1.00  0.00     0.029 C 
HETATM   11  P2  UNL     1      21.365   0.577  51.169  1.00  0.00    -0.007 P 
ENDROOT
BRANCH   3  12
HETATM   12  C5  UNL     1      25.647  -0.784  54.046  1.00  0.00     0.088 A 
HETATM   13  C6  UNL     1      26.506  -1.411  52.996  1.00  0.00    -0.008 A 
HETATM   14  C7  UNL     1      27.785  -1.392  52.719  1.00  0.00     0.039 A 
HETATM   15  C8  UNL     1      28.824  -0.669  53.445  1.00  0.00     0.116 A 
HETATM   16  F1  UNL     1      30.129  -0.711  53.079  1.00  0.00    -0.206 F 
HETATM   17  C9  UNL     1      28.457   0.048  54.496  1.00  0.00     0.047 A 
HETATM   18  P1  UNL     1      26.754   0.235  55.153  1.00  0.00    -0.089 P 
HETATM   19  H7  UNL     1      26.338   1.612  55.222  1.00  0.00     0.062 HD
ENDBRANCH   3  12
BRANCH   1  20
HETATM   20  C3  UNL     1      23.282   3.133  52.020  1.00  0.00     0.193 A 
HETATM   21  S1  UNL     1      24.393   3.343  50.620  1.00  0.00    -0.058 SA
HETATM   22  C2  UNL     1      23.792   5.118  50.334  1.00  0.00     0.111 A 
HETATM   23  C1  UNL     1      22.795   5.212  51.436  1.00  0.00     0.171 A 
HETATM   24  N3  UNL     1      22.639   4.151  52.201  1.00  0.00    -0.198 NA
BRANCH  23  25
HETATM   25  O1  UNL     1      21.940   6.255  51.846  1.00  0.00    -0.344 OA
HETATM   26  H1  UNL     1      21.101   6.067  52.370  1.00  0.00     0.219 HD
ENDBRANCH  23  25
ENDBRANCH   1  20
TORSDOF 3
ENDMDL
