ROOT
HETATM    1  C4  UNL     1      22.342  -0.390  53.415  1.00  0.00     0.080 C 
HETATM    2  C5  UNL     1      23.638  -0.128  53.270  1.00  0.00     0.105 C 
HETATM    3  N2  UNL     1      24.807  -0.350  54.085  1.00  0.00    -0.383 N 
HETATM    4  C12 UNL     1      24.511  -1.186  55.207  1.00  0.00     0.152 C 
HETATM    5  C13 UNL     1      23.055  -1.448  55.362  1.00  0.00     0.030 C 
HETATM    6  C14 UNL     1      22.012  -1.144  54.626  1.00  0.00     0.080 C 
ENDROOT
BRANCH   3   7
HETATM    7  C6  UNL     1      25.952   0.327  53.580  1.00  0.00     0.162 C 
BRANCH   7   8
HETATM    8  C7  UNL     1      27.228   0.359  54.350  1.00  0.00     0.201 A 
HETATM    9  O2  UNL     1      27.827  -0.942  54.134  1.00  0.00    -0.349 OA
HETATM   10  C8  UNL     1      29.064  -1.208  53.681  1.00  0.00     0.136 A 
HETATM   11  C9  UNL     1      29.939  -0.254  53.395  1.00  0.00     0.026 A 
HETATM   12  C10 UNL     1      29.447   1.123  53.607  1.00  0.00     0.036 A 
HETATM   13  C11 UNL     1      28.205   1.401  54.048  1.00  0.00     0.074 A 
BRANCH  13  14
HETATM   14  O3  UNL     1      28.246   2.787  54.088  1.00  0.00    -0.362 OA
HETATM   15  H12 UNL     1      27.677   3.292  54.751  1.00  0.00     0.217 HD
ENDBRANCH  13  14
ENDBRANCH   7   8
ENDBRANCH   3   7
BRANCH   1  16
HETATM   16  C3  UNL     1      21.271  -0.090  52.485  1.00  0.00     0.256 C 
HETATM   17  N1  UNL     1      19.913   0.103  52.828  1.00  0.00    -0.350 N 
HETATM   18  H4  UNL     1      19.609   0.036  53.800  1.00  0.00     0.163 HD
HETATM   19  O1  UNL     1      21.531   0.013  51.270  1.00  0.00    -0.268 OA
BRANCH  17  20
HETATM   20  C2  UNL     1      19.184   0.374  51.637  1.00  0.00     0.107 C 
HETATM   21  C1  UNL     1      18.068  -0.395  51.697  1.00  0.00     0.029 C 
ENDBRANCH  17  20
ENDBRANCH   1  16
BRANCH   6  22
HETATM   22  O4  UNL     1      20.734  -1.523  54.999  1.00  0.00    -0.360 OA
HETATM   23  H16 UNL     1      20.672  -2.061  55.857  1.00  0.00     0.217 HD
ENDBRANCH   6  22
TORSDOF 6
ENDMDL
