ROOT
HETATM    1  C8  UNL     1      25.793   0.340  53.300  1.00  0.00     0.260 C 
HETATM    2  O2  UNL     1      24.967  -0.109  54.166  1.00  0.00    -0.267 OA
HETATM    3  N1  UNL     1      25.455   1.431  52.450  1.00  0.00    -0.318 N 
HETATM    4  C9  UNL     1      24.150   1.961  52.646  1.00  0.00     0.124 A 
HETATM    5  C10 UNL     1      23.812   2.979  51.840  1.00  0.00     0.050 A 
HETATM    6  C11 UNL     1      24.740   3.490  50.849  1.00  0.00    -0.003 A 
HETATM    7  C19 UNL     1      25.945   2.964  50.713  1.00  0.00     0.005 A 
HETATM    8  C20 UNL     1      26.472   1.854  51.508  1.00  0.00     0.160 A 
ENDROOT
BRANCH   6   9
HETATM    9  C12 UNL     1      24.264   4.645  49.981  1.00  0.00     0.257 C 
BRANCH   9  10
HETATM   10  N3  UNL     1      25.121   5.660  49.873  1.00  0.00    -0.460 NA
BRANCH  10  11
HETATM   11  C13 UNL     1      25.900   6.466  49.735  1.00  0.00     0.151 C 
BRANCH  11  12
HETATM   12  C14 UNL     1      26.610   6.406  48.428  1.00  0.00     0.085 C 
BRANCH  12  13
HETATM   13  C15 UNL     1      27.638   5.349  48.534  1.00  0.00    -0.025 C 
HETATM   14  C16 UNL     1      28.905   5.525  48.217  1.00  0.00    -0.029 C 
BRANCH  14  15
HETATM   15  C17 UNL     1      29.685   6.680  47.707  1.00  0.00     0.056 C 
BRANCH  15  16
HETATM   16  C18 UNL     1      30.582   7.243  48.776  1.00  0.00     0.270 C 
BRANCH  16  17
HETATM   17  N4  UNL     1      29.925   8.347  49.411  1.00  0.00     0.078 N 
HETATM   18  H22 UNL     1      29.610   9.063  48.692  1.00  0.00     0.312 HD
HETATM   19  H23 UNL     1      29.013   7.956  49.796  1.00  0.00     0.312 HD
ENDBRANCH  16  17
ENDBRANCH  15  16
ENDBRANCH  14  15
ENDBRANCH  12  13
ENDBRANCH  11  12
ENDBRANCH  10  11
ENDBRANCH   9  10
ENDBRANCH   6   9
BRANCH   5  20
HETATM   20  N2  UNL     1      22.542   3.552  51.974  1.00  0.00    -0.397 N 
HETATM   21  H9  UNL     1      22.401   4.245  52.767  1.00  0.00     0.156 HD
HETATM   22  H10 UNL     1      21.686   3.408  51.404  1.00  0.00     0.156 HD
ENDBRANCH   5  20
BRANCH   1  23
HETATM   23  C7  UNL     1      27.036  -0.412  53.344  1.00  0.00     0.065 A 
HETATM   24  C2  UNL     1      28.259  -0.077  53.886  1.00  0.00     0.084 A 
HETATM   25  C3  UNL     1      29.288  -0.993  53.786  1.00  0.00     0.038 A 
HETATM   26  C4  UNL     1      29.135  -2.217  53.169  1.00  0.00     0.003 A 
HETATM   27  C5  UNL     1      27.918  -2.560  52.624  1.00  0.00     0.001 A 
HETATM   28  C6  UNL     1      26.864  -1.647  52.715  1.00  0.00     0.020 A 
BRANCH  24  29
HETATM   29  O1  UNL     1      28.276   1.160  54.467  1.00  0.00    -0.355 OA
HETATM   30  C1  UNL     1      28.950   2.290  53.960  1.00  0.00     0.210 C 
ENDBRANCH  24  29
ENDBRANCH   1  23
TORSDOF 11
ENDMDL
