ROOT
HETATM    1  C9  UNL     1      20.368  -0.988  53.732  1.00  0.00     0.089 A 
HETATM    2  C10 UNL     1      19.875  -0.138  52.874  1.00  0.00     0.051 A 
HETATM    3  C11 UNL     1      18.515  -0.270  52.383  1.00  0.00     0.038 A 
HETATM    4  C12 UNL     1      17.674  -1.282  52.786  1.00  0.00     0.067 A 
HETATM    5  N3  UNL     1      16.413  -1.358  52.280  1.00  0.00    -0.244 NA
HETATM    6  C13 UNL     1      16.007  -0.440  51.387  1.00  0.00     0.235 A 
HETATM    7  N4  UNL     1      16.810   0.578  50.962  1.00  0.00    -0.224 NA
HETATM    8  C14 UNL     1      18.071   0.643  51.479  1.00  0.00     0.139 A 
HETATM    9  C20 UNL     1      18.114  -2.299  53.773  1.00  0.00     0.180 A 
HETATM   10  N6  UNL     1      19.477  -2.021  54.136  1.00  0.00    -0.380 N 
HETATM   11  H23 UNL     1      19.832  -2.742  54.829  1.00  0.00     0.160 HD
ENDROOT
BRANCH   1  12
HETATM   12  C8  UNL     1      21.727  -0.940  54.286  1.00  0.00     0.251 C 
HETATM   13  O1  UNL     1      21.970  -1.651  55.286  1.00  0.00    -0.276 OA
BRANCH  12  14
HETATM   14  C7  UNL     1      22.697  -0.085  53.654  1.00  0.00    -0.022 C 
HETATM   15  C6  UNL     1      23.526   0.622  53.132  1.00  0.00    -0.096 C 
BRANCH  15  16
HETATM   16  C5  UNL     1      24.539   1.461  52.521  1.00  0.00     0.124 C 
BRANCH  16  17
HETATM   17  C4  UNL     1      25.710   1.602  53.455  1.00  0.00     0.284 C 
BRANCH  17  18
HETATM   18  N2  UNL     1      26.231   0.261  53.688  1.00  0.00     0.092 N 
HETATM   19  C3  UNL     1      27.035  -0.194  52.598  1.00  0.00     0.302 C 
HETATM   20  C2  UNL     1      28.026  -1.246  53.030  1.00  0.00     0.302 C 
HETATM   21  N1  UNL     1      28.929  -0.744  54.018  1.00  0.00     0.087 N 
HETATM   22  C1  UNL     1      30.119  -0.139  53.451  1.00  0.00     0.310 C 
HETATM   23  C22 UNL     1      28.344   0.197  54.935  1.00  0.00     0.302 C 
HETATM   24  C21 UNL     1      26.851   0.136  54.985  1.00  0.00     0.302 C 
ENDBRANCH  17  18
ENDBRANCH  16  17
ENDBRANCH  15  16
ENDBRANCH  12  14
ENDBRANCH   1  12
BRANCH   8  25
HETATM   25  N5  UNL     1      18.799   1.761  50.949  1.00  0.00    -0.361 N 
HETATM   26  C15 UNL     1      19.023   1.785  49.497  1.00  0.00     0.154 C 
HETATM   27  C16 UNL     1      20.439   1.285  49.334  1.00  0.00     0.030 C 
HETATM   28  C17 UNL     1      21.216   2.047  50.094  1.00  0.00     0.093 C 
HETATM   29  F1  UNL     1      22.544   1.705  50.048  1.00  0.00    -0.211 F 
HETATM   30  C18 UNL     1      20.804   3.188  50.954  1.00  0.00     0.089 C 
HETATM   31  C19 UNL     1      19.425   2.962  51.525  1.00  0.00     0.131 C 
ENDBRANCH   8  25
TORSDOF 6
ENDMDL
