ROOT
HETATM    1  C1  UNL     1      25.968   4.354  49.266  1.00  0.00     0.000 C 
HETATM    2  O1  UNL     1      25.429   3.464  50.232  1.00  0.00     0.000 OA
HETATM    3  C2  UNL     1      24.085   3.458  50.556  1.00  0.00    -0.053 A 
HETATM    4  C3  UNL     1      24.758   2.472  51.101  1.00  0.00     0.027 A 
HETATM    5  C4  UNL     1      25.921   1.640  51.423  1.00  0.00     0.047 C 
HETATM    6  C5  UNL     1      26.035   1.411  52.930  1.00  0.00     0.075 C 
HETATM    7  C6  UNL     1      26.180   2.704  53.664  1.00  0.00     0.046 C 
HETATM    8  N1  UNL     1      24.851   0.652  53.295  1.00  0.00    -0.269 N 
HETATM    9  C13 UNL     1      24.867  -0.523  53.808  1.00  0.00     0.218 A 
HETATM   10  N2  UNL     1      23.550  -0.057  53.638  1.00  0.00    -0.068 NA
HETATM   11  N3  UNL     1      22.599  -0.719  53.060  1.00  0.00    -0.135 NA
HETATM   12  C14 UNL     1      21.283  -0.096  52.958  1.00  0.00     0.262 C 
HETATM   13  O2  UNL     1      20.933  -1.260  53.183  1.00  0.00    -0.270 OA
HETATM   14  C15 UNL     1      21.398   1.293  52.692  1.00  0.00     0.100 C 
HETATM   15  C16 UNL     1      20.242   2.228  52.927  1.00  0.00     0.035 C 
HETATM   16  C17 UNL     1      20.839   3.489  52.231  1.00  0.00     0.118 C 
HETATM   17  N4  UNL     1      21.946   3.013  51.468  1.00  0.00    -0.408 N 
HETATM   18  C18 UNL     1      22.649   3.832  50.630  1.00  0.00     0.151 C 
HETATM   19  C19 UNL     1      21.583   1.675  51.195  1.00  0.00     0.131 C 
ENDROOT
BRANCH   6  20
HETATM   20  C7  UNL     1      27.223   0.580  53.212  1.00  0.00    -0.027 A 
HETATM   21  C8  UNL     1      28.278   1.275  53.799  1.00  0.00     0.013 A 
HETATM   22  C9  UNL     1      29.450   0.634  54.119  1.00  0.00     0.044 A 
HETATM   23  C10 UNL     1      29.646  -0.711  53.883  1.00  0.00     0.138 A 
HETATM   24  F1  UNL     1      30.807  -1.328  54.205  1.00  0.00    -0.204 F 
HETATM   25  C11 UNL     1      28.577  -1.379  53.298  1.00  0.00     0.073 A 
HETATM   26 CL1  UNL     1      28.725  -3.090  52.956  1.00  0.00    -0.081 Cl
HETATM   27  C12 UNL     1      27.396  -0.743  52.972  1.00  0.00     0.036 A 
ENDBRANCH   6  20
TORSDOF 1
ENDMDL
