ROOT
HETATM    1  C8  UNL     1      22.322  -0.442  53.641  1.00  0.00     0.088 A 
HETATM    2  C9  UNL     1      22.015  -1.289  54.689  1.00  0.00     0.151 A 
HETATM    3  N3  UNL     1      23.000  -1.584  55.555  1.00  0.00    -0.245 NA
HETATM    4  C10 UNL     1      24.221  -1.054  55.369  1.00  0.00     0.128 A 
HETATM    5  C11 UNL     1      24.548  -0.208  54.332  1.00  0.00     0.114 A 
HETATM    6  N7  UNL     1      23.546   0.078  53.472  1.00  0.00    -0.245 NA
ENDROOT
BRANCH   1   7
HETATM    7  C7  UNL     1      21.226  -0.137  52.710  1.00  0.00     0.030 A 
HETATM    8  C6  UNL     1      19.864  -0.232  52.905  1.00  0.00     0.128 A 
HETATM    9  N2  UNL     1      19.183   0.138  51.816  1.00  0.00    -0.275 N 
HETATM   10  N8  UNL     1      20.063   0.479  50.897  1.00  0.00    -0.184 NA
HETATM   11  C17 UNL     1      21.323   0.327  51.398  1.00  0.00     0.154 A 
BRANCH   9  12
HETATM   12  C5  UNL     1      17.727   0.163  51.664  1.00  0.00     0.112 C 
HETATM   13  C4  UNL     1      17.110  -0.969  52.455  1.00  0.00     0.047 C 
HETATM   14  C3  UNL     1      15.634  -0.893  52.338  1.00  0.00     0.119 C 
HETATM   15  N1  UNL     1      15.073  -0.526  51.103  1.00  0.00    -0.413 N 
HETATM   16  C19 UNL     1      15.875   0.032  50.094  1.00  0.00     0.119 C 
HETATM   17  C18 UNL     1      17.358  -0.120  50.222  1.00  0.00     0.047 C 
BRANCH  15  18
HETATM   18  C2  UNL     1      13.876  -1.188  50.725  1.00  0.00     0.112 C 
HETATM   19  C1  UNL     1      14.157  -2.658  50.516  1.00  0.00     0.026 C 
ENDBRANCH  15  18
ENDBRANCH   9  12
ENDBRANCH   1   7
BRANCH   5  20
HETATM   20  C12 UNL     1      25.899   0.375  54.132  1.00  0.00     0.326 C 
HETATM   21  C13 UNL     1      25.964   1.358  53.043  1.00  0.00     0.040 C 
HETATM   22  C14 UNL     1      26.374   0.668  51.968  1.00  0.00     0.030 C 
HETATM   23  C15 UNL     1      26.581  -0.759  52.330  1.00  0.00     0.302 C 
HETATM   24  N6  UNL     1      26.794  -0.693  53.755  1.00  0.00     0.104 N 
HETATM   25  C16 UNL     1      28.136  -0.308  54.113  1.00  0.00     0.311 C 
BRANCH  21  26
HETATM   26  N5  UNL     1      25.722   2.747  52.857  1.00  0.00    -0.400 N 
HETATM   27  H16 UNL     1      24.989   3.153  52.251  1.00  0.00     0.156 HD
HETATM   28  H17 UNL     1      26.271   3.526  53.324  1.00  0.00     0.156 HD
ENDBRANCH  21  26
ENDBRANCH   5  20
BRANCH   4  29
HETATM   29  N4  UNL     1      25.236  -1.389  56.305  1.00  0.00    -0.285 NA
HETATM   30  H13 UNL     1      26.099  -1.976  56.291  1.00  0.00     0.125 HD
HETATM   31  H14 UNL     1      26.113  -1.947  56.393  1.00  0.00     0.125 HD
ENDBRANCH   4  29
TORSDOF 6
ENDMDL
