ROOT
HETATM    1  C1  UNL     1      16.634   0.634  49.415  1.00  0.00     0.018 C 
HETATM    2  C2  UNL     1      17.297   0.267  50.365  1.00  0.00    -0.078 C 
HETATM    3  C3  UNL     1      18.065  -0.185  51.475  1.00  0.00     0.019 A 
HETATM    4  C4  UNL     1      17.536  -1.084  52.404  1.00  0.00     0.021 A 
HETATM    5  C5  UNL     1      18.331  -1.508  53.471  1.00  0.00     0.004 A 
HETATM    6  C6  UNL     1      19.644  -1.032  53.605  1.00  0.00     0.029 A 
HETATM    7  C7  UNL     1      20.149  -0.152  52.688  1.00  0.00     0.034 A 
HETATM    8  C22 UNL     1      19.366   0.244  51.669  1.00  0.00     0.050 A 
ENDROOT
BRANCH   7   9
HETATM    9  N1  UNL     1      21.482   0.227  52.996  1.00  0.00    -0.344 N 
HETATM   10  H5  UNL     1      22.045  -0.006  53.795  1.00  0.00     0.167 HD
BRANCH   9  11
HETATM   11  C8  UNL     1      22.043   1.048  52.025  1.00  0.00     0.118 C 
HETATM   12  N2  UNL     1      21.938   1.094  50.758  1.00  0.00    -0.271 NA
HETATM   13  C9  UNL     1      22.321   1.717  49.604  1.00  0.00     0.106 C 
HETATM   14  C10 UNL     1      21.086   1.602  48.560  1.00  0.00     0.034 C 
HETATM   15  C11 UNL     1      23.061   2.887  49.186  1.00  0.00     0.027 C 
HETATM   16  C12 UNL     1      24.480   3.222  49.416  1.00  0.00     0.002 C 
HETATM   17  O1  UNL     1      24.803   3.720  50.792  1.00  0.00     0.000 OA
HETATM   18  C13 UNL     1      24.241   2.770  51.712  1.00  0.00     0.057 A 
HETATM   19  C14 UNL     1      23.326   3.698  51.476  1.00  0.00     0.053 A 
HETATM   20  C19 UNL     1      25.131   1.843  51.957  1.00  0.00     0.089 A 
HETATM   21  C17 UNL     1      23.080   2.100  52.401  1.00  0.00     0.123 A 
HETATM   22  C18 UNL     1      24.070   1.123  52.637  1.00  0.00     0.096 A 
HETATM   23  O2  UNL     1      26.395   1.351  51.865  1.00  0.00    -0.350 OA
HETATM   24  O3  UNL     1      24.167  -0.108  53.258  1.00  0.00    -0.349 OA
HETATM   25  C21 UNL     1      25.562  -0.438  53.398  1.00  0.00     0.202 C 
HETATM   26  C20 UNL     1      26.441  -0.049  52.279  1.00  0.00     0.202 C 
HETATM   27  C15 UNL     1      22.279   3.120  52.093  1.00  0.00     0.204 A 
BRANCH  27  28
HETATM   28  N3  UNL     1      20.936   3.290  52.437  1.00  0.00     0.028 NA
HETATM   29  C16 UNL     1      20.152   3.991  51.677  1.00  0.00     0.709 C 
ENDBRANCH  27  28
ENDBRANCH   9  11
ENDBRANCH   7   9
TORSDOF 3
ENDMDL
