ROOT
HETATM    1  C6  UNL     1      26.121   3.190  50.913  1.00  0.00     0.136 C 
HETATM    2  C7  UNL     1      24.807   3.159  50.762  1.00  0.00     0.002 C 
HETATM    3  C8  UNL     1      23.660   3.235  51.642  1.00  0.00     0.023 C 
HETATM    4  C9  UNL     1      22.515   3.900  51.189  1.00  0.00    -0.009 C 
HETATM    5  C10 UNL     1      22.149   5.288  51.736  1.00  0.00     0.162 C 
HETATM    6  N2  UNL     1      23.120   6.204  51.006  1.00  0.00    -0.185 NA
HETATM    7  C11 UNL     1      23.218   5.886  49.618  1.00  0.00     0.136 C 
HETATM    8  C14 UNL     1      24.036   4.697  49.314  1.00  0.00     0.046 C 
HETATM    9  N4  UNL     1      25.161   5.167  48.810  1.00  0.00    -0.248 NA
HETATM   10  C15 UNL     1      26.542   4.797  49.145  1.00  0.00     0.235 C 
HETATM   11  N5  UNL     1      26.946   3.696  49.807  1.00  0.00    -0.224 NA
HETATM   12  C16 UNL     1      24.106   3.161  49.379  1.00  0.00     0.097 C 
HETATM   13  C17 UNL     1      22.785   2.449  49.619  1.00  0.00     0.026 C 
HETATM   14  C18 UNL     1      21.864   3.399  49.897  1.00  0.00     0.073 C 
ENDROOT
BRANCH   1  15
HETATM   15  N1  UNL     1      26.170   2.686  52.251  1.00  0.00    -0.338 N 
HETATM   16  H4  UNL     1      25.780   3.277  53.019  1.00  0.00     0.167 HD
BRANCH  15  17
HETATM   17  C5  UNL     1      26.749   1.378  52.481  1.00  0.00     0.075 A 
HETATM   18  C4  UNL     1      26.427   0.002  52.240  1.00  0.00     0.057 A 
HETATM   19  C3  UNL     1      27.381  -0.773  52.694  1.00  0.00     0.048 A 
HETATM   20  C2  UNL     1      28.435   0.050  53.288  1.00  0.00     0.017 A 
HETATM   21 CL1  UNL     1      27.361  -2.520  52.590  1.00  0.00    -0.083 Cl
HETATM   22  C1  UNL     1      29.571  -0.356  53.858  1.00  0.00     0.028 C 
HETATM   23  C20 UNL     1      27.941   1.432  53.104  1.00  0.00     0.154 A 
HETATM   24  F1  UNL     1      28.721   2.463  53.567  1.00  0.00    -0.203 F 
ENDBRANCH  15  17
ENDBRANCH   1  15
BRANCH  14  25
HETATM   25  O2  UNL     1      20.972   3.222  48.784  1.00  0.00    -0.356 OA
HETATM   26  C19 UNL     1      20.025   4.218  48.477  1.00  0.00     0.210 C 
ENDBRANCH  14  25
BRANCH   7  27
HETATM   27  C12 UNL     1      23.450   7.075  48.739  1.00  0.00     0.058 C 
BRANCH  27  28
HETATM   28  C13 UNL     1      22.387   7.534  47.841  1.00  0.00     0.269 C 
BRANCH  28  29
HETATM   29  N3  UNL     1      21.163   7.639  48.676  1.00  0.00     0.078 N 
HETATM   30  H14 UNL     1      20.455   6.928  48.343  1.00  0.00     0.312 HD
HETATM   31  H15 UNL     1      21.430   7.280  49.642  1.00  0.00     0.312 HD
ENDBRANCH  28  29
ENDBRANCH  27  28
ENDBRANCH   7  27
BRANCH   6  32
HETATM   32  O1  UNL     1      22.636   7.436  51.221  1.00  0.00    -0.312 OA
HETATM   33  H8  UNL     1      21.939   7.716  50.566  1.00  0.00     0.237 HD
ENDBRANCH   6  32
TORSDOF 7
ENDMDL
