ROOT
HETATM    1  C8  UNL     1      24.589   1.987  52.983  1.00  0.00     0.180 A 
HETATM    2  N1  UNL     1      23.960   3.172  52.925  1.00  0.00    -0.109 NA
HETATM    3  O2  UNL     1      22.935   3.123  52.126  1.00  0.00    -0.195 OA
HETATM    4  C9  UNL     1      22.879   1.902  51.646  1.00  0.00     0.182 A 
HETATM    5  N4  UNL     1      23.890   1.178  52.159  1.00  0.00    -0.206 NA
ENDROOT
BRANCH   1   6
HETATM    6  C7  UNL     1      25.777   1.468  53.706  1.00  0.00     0.258 C 
BRANCH   6   7
HETATM    7  O1  UNL     1      26.675   0.912  52.775  1.00  0.00    -0.340 OA
BRANCH   7   8
HETATM    8  C6  UNL     1      27.875   0.324  53.113  1.00  0.00     0.112 A 
HETATM    9  C1  UNL     1      29.055   0.894  53.556  1.00  0.00     0.069 A 
HETATM   10 CL1  UNL     1      28.998   2.621  53.701  1.00  0.00    -0.081 Cl
HETATM   11  C2  UNL     1      30.145   0.098  53.839  1.00  0.00     0.027 A 
HETATM   12  C3  UNL     1      30.110  -1.280  53.696  1.00  0.00     0.003 A 
HETATM   13  C4  UNL     1      28.949  -1.842  53.260  1.00  0.00     0.027 A 
HETATM   14  C5  UNL     1      27.827  -1.067  52.965  1.00  0.00     0.069 A 
HETATM   15 CL2  UNL     1      26.432  -1.962  52.419  1.00  0.00    -0.081 Cl
ENDBRANCH   7   8
ENDBRANCH   6   7
ENDBRANCH   1   6
BRANCH   4  16
HETATM   16  C10 UNL     1      21.878   1.356  50.688  1.00  0.00     0.164 C 
BRANCH  16  17
HETATM   17  S1  UNL     1      20.503   0.521  51.470  1.00  0.00    -0.141 SA
BRANCH  17  18
HETATM   18  C11 UNL     1      20.352   0.812  53.230  1.00  0.00     0.199 C 
BRANCH  18  19
HETATM   19  N2  UNL     1      20.976  -0.238  53.978  1.00  0.00    -0.349 N 
HETATM   20  C12 UNL     1      20.666  -1.619  54.144  1.00  0.00     0.202 A 
HETATM   21  N3  UNL     1      21.652  -1.828  54.916  1.00  0.00    -0.265 NA
HETATM   22  C13 UNL     1      22.097  -0.464  54.851  1.00  0.00     0.276 A 
ENDBRANCH  18  19
ENDBRANCH  17  18
ENDBRANCH  16  17
ENDBRANCH   4  16
TORSDOF 7
ENDMDL
