ROOT
HETATM    1  C3  UNL     1      26.600   0.714  53.966  1.00  0.00     0.124 C 
HETATM    2  C4  UNL     1      25.760  -0.104  53.307  1.00  0.00     0.031 C 
HETATM    3  C5  UNL     1      24.554   0.444  52.729  1.00  0.00     0.101 C 
HETATM    4  C6  UNL     1      24.517   1.937  52.728  1.00  0.00     0.065 C 
HETATM    5  N1  UNL     1      23.656   2.669  52.047  1.00  0.00    -0.244 NA
HETATM    6  C7  UNL     1      22.600   2.158  51.184  1.00  0.00     0.234 C 
HETATM    7  N2  UNL     1      21.865   1.074  51.369  1.00  0.00    -0.242 NA
HETATM    8  C8  UNL     1      22.067   0.242  52.541  1.00  0.00     0.067 A 
HETATM    9  C9  UNL     1      20.857  -0.277  53.025  1.00  0.00     0.032 A 
HETATM   10  C10 UNL     1      20.764  -1.071  54.146  1.00  0.00     0.004 A 
HETATM   11  C11 UNL     1      21.951  -1.341  54.787  1.00  0.00     0.020 A 
HETATM   12  C12 UNL     1      23.119  -0.840  54.319  1.00  0.00     0.020 A 
HETATM   13 BR1  UNL     1      24.689  -1.243  55.313  1.00  0.00    -0.050 Br
HETATM   14  C13 UNL     1      23.269  -0.047  53.209  1.00  0.00     0.002 A 
HETATM   15  C14 UNL     1      25.458   2.757  53.477  1.00  0.00     0.146 C 
HETATM   16  N3  UNL     1      26.441   2.135  54.049  1.00  0.00    -0.249 NA
ENDROOT
BRANCH   1  17
HETATM   17  S1  UNL     1      28.114   0.220  54.746  1.00  0.00     0.092 S 
HETATM   18  O1  UNL     1      28.996   1.416  55.055  1.00  0.00    -0.247 OA
BRANCH  17  19
HETATM   19  C2  UNL     1      28.983  -0.967  53.725  1.00  0.00     0.075 C 
HETATM   20  C1  UNL     1      29.972  -0.071  53.526  1.00  0.00     0.021 C 
ENDBRANCH  17  19
ENDBRANCH   1  17
TORSDOF 2
ENDMDL
