ROOT
HETATM    1  N1  UNL     1      29.158  -1.855  53.536  1.00  0.00    -0.191 NA
HETATM    2  C1  UNL     1      28.635  -0.824  53.335  1.00  0.00     0.104 C 
HETATM    3  C2  UNL     1      27.974   0.445  53.064  1.00  0.00     0.107 C 
HETATM    4  C3  UNL     1      26.904   0.460  52.298  1.00  0.00     0.039 C 
ENDROOT
BRANCH   3   5
HETATM    5  C22 UNL     1      28.611   1.563  53.730  1.00  0.00     0.239 C 
HETATM    6  N2  UNL     1      28.982   2.828  53.204  1.00  0.00    -0.268 NA
HETATM    7  H15 UNL     1      28.766   3.783  53.559  1.00  0.00     0.127 HD
HETATM    8  H16 UNL     1      28.776   3.792  53.543  1.00  0.00     0.127 HD
HETATM    9  O2  UNL     1      28.962   1.623  54.921  1.00  0.00    -0.273 OA
ENDBRANCH   3   5
BRANCH   4  10
HETATM   10  C4  UNL     1      25.964   1.444  51.778  1.00  0.00    -0.032 A 
HETATM   11  C5  UNL     1      24.612   1.317  51.965  1.00  0.00     0.033 A 
HETATM   12  C6  UNL     1      23.693   2.213  51.463  1.00  0.00     0.040 A 
HETATM   13  C13 UNL     1      24.175   3.271  50.748  1.00  0.00     0.093 A 
HETATM   14  C14 UNL     1      25.515   3.460  50.523  1.00  0.00     0.009 A 
HETATM   15  C21 UNL     1      26.392   2.537  51.045  1.00  0.00     0.026 A 
BRANCH  12  16
HETATM   16  S1  UNL     1      21.936   2.056  51.691  1.00  0.00    -0.088 SA
BRANCH  16  17
HETATM   17  C7  UNL     1      21.479   0.682  52.713  1.00  0.00     0.005 A 
HETATM   18  C8  UNL     1      22.348   0.144  53.661  1.00  0.00     0.019 A 
HETATM   19  C9  UNL     1      22.031  -0.921  54.475  1.00  0.00     0.001 A 
HETATM   20  C10 UNL     1      20.776  -1.507  54.362  1.00  0.00     0.000 A 
HETATM   21  C11 UNL     1      19.932  -0.973  53.431  1.00  0.00     0.001 A 
HETATM   22  C12 UNL     1      20.220   0.088  52.605  1.00  0.00     0.019 A 
ENDBRANCH  16  17
ENDBRANCH  12  16
BRANCH  13  23
HETATM   23  O1  UNL     1      23.305   4.207  50.215  1.00  0.00    -0.358 OA
HETATM   24  H8  UNL     1      22.313   4.198  50.257  1.00  0.00     0.217 HD
ENDBRANCH  13  23
BRANCH  14  25
HETATM   25  C15 UNL     1      26.087   4.564  49.771  1.00  0.00    -0.023 A 
HETATM   26  C16 UNL     1      27.252   4.362  49.043  1.00  0.00     0.012 A 
HETATM   27  C17 UNL     1      27.819   5.406  48.314  1.00  0.00     0.001 A 
HETATM   28  C18 UNL     1      27.247   6.662  48.294  1.00  0.00     0.000 A 
HETATM   29  C19 UNL     1      26.082   6.873  49.020  1.00  0.00     0.001 A 
HETATM   30  C20 UNL     1      25.528   5.833  49.738  1.00  0.00     0.012 A 
ENDBRANCH  14  25
ENDBRANCH   4  10
TORSDOF 6
ENDMDL
