ROOT
HETATM    1  C4  UNL     1      26.444   0.841  53.296  1.00  0.00     0.017 C 
HETATM    2  C5  UNL     1      25.257   0.626  52.774  1.00  0.00     0.148 C 
HETATM    3  C6  UNL     1      24.197  -0.405  52.980  1.00  0.00     0.094 C 
HETATM    4  C7  UNL     1      23.090  -0.040  53.840  1.00  0.00    -0.024 C 
HETATM    5  C8  UNL     1      21.780   0.269  54.096  1.00  0.00    -0.024 C 
HETATM    6  C9  UNL     1      21.653   0.092  52.669  1.00  0.00     0.053 C 
HETATM    7  C10 UNL     1      20.580   0.298  51.946  1.00  0.00    -0.040 C 
HETATM    8  C11 UNL     1      21.509  -0.142  50.849  1.00  0.00     0.011 C 
HETATM    9  C12 UNL     1      19.531   0.659  50.906  1.00  0.00     0.005 C 
HETATM   10  C13 UNL     1      19.640   1.308  49.711  1.00  0.00     0.087 C 
HETATM   11  P2  UNL     1      21.183   1.990  48.945  1.00  0.00    -0.123 P 
HETATM   12  C14 UNL     1      21.966   3.271  50.067  1.00  0.00    -0.015 A 
HETATM   13  C15 UNL     1      23.125   3.455  50.760  1.00  0.00     0.091 A 
HETATM   14  N1  UNL     1      23.206   4.690  51.504  1.00  0.00    -0.385 N 
HETATM   15  C16 UNL     1      22.292   5.823  51.592  1.00  0.00     0.147 A 
HETATM   16  C17 UNL     1      21.057   5.521  50.810  1.00  0.00    -0.007 A 
HETATM   17  C18 UNL     1      21.008   4.363  50.166  1.00  0.00     0.011 A 
HETATM   18  C19 UNL     1      24.289   2.532  50.832  1.00  0.00     0.405 A 
HETATM   19  O2  UNL     1      23.837   2.173  51.996  1.00  0.00    -0.138 OA
HETATM   20  N2  UNL     1      24.864   1.564  51.714  1.00  0.00     0.121 N 
HETATM   21  H18 UNL     1      20.800   2.620  47.688  1.00  0.00     0.052 HD
HETATM   22  H19 UNL     1      24.060   4.764  52.071  1.00  0.00     0.159 HD
HETATM   23  H24 UNL     1      25.670   1.360  50.997  1.00  0.00     0.329 HD
ENDROOT
BRANCH   1  24
HETATM   24  C3  UNL     1      26.950  -0.051  54.326  1.00  0.00     0.112 C 
BRANCH  24  25
HETATM   25  C2  UNL     1      28.414   0.114  54.499  1.00  0.00     0.151 C 
HETATM   26  O1  UNL     1      28.146   0.940  55.332  1.00  0.00    -0.293 OA
BRANCH  25  27
HETATM   27  P1  UNL     1      29.488  -0.927  53.458  1.00  0.00    -0.059 P 
HETATM   28  C1  UNL     1      28.683  -2.544  53.083  1.00  0.00     0.049 C 
HETATM   29  H4  UNL     1      30.734  -1.146  54.155  1.00  0.00     0.065 HD
ENDBRANCH  25  27
ENDBRANCH  24  25
ENDBRANCH   1  24
TORSDOF 3
ENDMDL
