ROOT
HETATM    1  N3  UNL     1      25.099   3.406  49.751  1.00  0.00    -0.372 N 
HETATM    2  H5  UNL     1      24.634   2.821  49.023  1.00  0.00     0.161 HD
ENDROOT
BRANCH   1   3
HETATM    3  C4  UNL     1      24.936   3.164  51.159  1.00  0.00     0.271 C 
BRANCH   3   4
HETATM    4  N2  UNL     1      26.142   2.527  51.645  1.00  0.00    -0.270 NA
HETATM    5  C3  UNL     1      26.037   1.382  52.224  1.00  0.00     0.065 C 
BRANCH   5   6
HETATM    6  C2  UNL     1      24.691   0.895  52.301  1.00  0.00     0.046 C 
HETATM    7  C1  UNL     1      23.910   0.444  53.261  1.00  0.00     0.234 C 
BRANCH   7   8
HETATM    8  N1  UNL     1      22.613  -0.058  53.503  1.00  0.00    -0.249 NA
HETATM    9  S1  UNL     1      22.285  -1.036  54.760  1.00  0.00     0.002 SA
ENDBRANCH   7   8
ENDBRANCH   5   6
BRANCH   5  10
HETATM   10  C16 UNL     1      27.200   0.689  52.734  1.00  0.00     0.010 A 
HETATM   11  C17 UNL     1      27.420  -0.671  52.787  1.00  0.00     0.017 A 
HETATM   12  C18 UNL     1      28.566  -1.232  53.294  1.00  0.00     0.020 A 
HETATM   13  C19 UNL     1      29.569  -0.424  53.784  1.00  0.00     0.116 A 
HETATM   14  N6  UNL     1      29.360   0.913  53.735  1.00  0.00    -0.272 NA
HETATM   15  C20 UNL     1      28.253   1.456  53.246  1.00  0.00     0.130 A 
ENDBRANCH   5  10
ENDBRANCH   3   4
ENDBRANCH   1   3
BRANCH   1  16
HETATM   16  C5  UNL     1      25.919   4.478  49.302  1.00  0.00     0.031 A 
HETATM   17  C6  UNL     1      25.467   5.773  49.179  1.00  0.00     0.029 A 
HETATM   18  C7  UNL     1      26.298   6.800  48.736  1.00  0.00     0.005 A 
HETATM   19  C8  UNL     1      27.610   6.556  48.399  1.00  0.00     0.037 A 
HETATM   20  C9  UNL     1      28.107   5.252  48.509  1.00  0.00     0.070 A 
HETATM   21  C15 UNL     1      27.238   4.297  48.951  1.00  0.00     0.065 A 
BRANCH  20  22
HETATM   22  O1  UNL     1      29.427   4.976  48.177  1.00  0.00    -0.349 OA
BRANCH  22  23
HETATM   23  C10 UNL     1      30.337   6.059  48.153  1.00  0.00     0.196 C 
BRANCH  23  24
HETATM   24  C11 UNL     1      31.705   5.634  48.676  1.00  0.00     0.156 C 
BRANCH  24  25
HETATM   25  N4  UNL     1      32.321   4.847  47.608  1.00  0.00    -0.348 N 
HETATM   26  C12 UNL     1      32.774   3.582  47.725  1.00  0.00     0.111 A 
HETATM   27  C13 UNL     1      33.295   3.141  46.522  1.00  0.00     0.135 A 
HETATM   28  N5  UNL     1      33.131   4.195  45.697  1.00  0.00    -0.255 NA
HETATM   29  C14 UNL     1      32.552   5.214  46.334  1.00  0.00     0.209 A 
ENDBRANCH  24  25
ENDBRANCH  23  24
ENDBRANCH  22  23
ENDBRANCH  20  22
ENDBRANCH   1  16
TORSDOF 10
ENDMDL
