ROOT
HETATM    1  C1  UNL     1      21.589  -0.622  53.896  1.00  0.00     0.137 A 
HETATM    2  N2  UNL     1      21.759  -1.391  54.997  1.00  0.00    -0.224 NA
HETATM    3  C2  UNL     1      23.000  -1.558  55.462  1.00  0.00     0.237 A 
HETATM    4  N3  UNL     1      24.086  -0.996  54.886  1.00  0.00    -0.223 NA
HETATM    5  C3  UNL     1      23.964  -0.214  53.778  1.00  0.00     0.146 A 
HETATM    6  C4  UNL     1      22.694  -0.045  53.304  1.00  0.00     0.068 A 
HETATM    7  C5  UNL     1      22.673   0.752  52.197  1.00  0.00     0.008 A 
HETATM    8  C6  UNL     1      21.694   1.265  51.270  1.00  0.00    -0.021 A 
HETATM    9  C7  UNL     1      20.717   0.604  50.562  1.00  0.00     0.012 A 
HETATM   10  C8  UNL     1      19.845   1.240  49.720  1.00  0.00     0.004 A 
HETATM   11  C9  UNL     1      19.903   2.606  49.533  1.00  0.00     0.036 A 
HETATM   12  C10 UNL     1      20.862   3.325  50.214  1.00  0.00     0.066 A 
HETATM   13  C11 UNL     1      21.718   2.647  51.052  1.00  0.00     0.049 A 
HETATM   14  C12 UNL     1      24.021   1.076  52.007  1.00  0.00     0.106 A 
HETATM   15  N4  UNL     1      24.780   0.485  52.967  1.00  0.00    -0.335 N 
ENDROOT
BRANCH  15  16
HETATM   16  C13 UNL     1      26.214   0.551  53.150  1.00  0.00     0.093 C 
HETATM   17  C14 UNL     1      26.813   1.782  52.491  1.00  0.00     0.027 C 
HETATM   18  C15 UNL     1      27.950   2.240  53.380  1.00  0.00     0.032 C 
HETATM   19  C16 UNL     1      29.022   1.189  53.383  1.00  0.00     0.273 C 
HETATM   20  N5  UNL     1      28.715   0.037  54.166  1.00  0.00     0.093 N 
HETATM   21  C17 UNL     1      29.890  -0.828  54.209  1.00  0.00     0.275 C 
HETATM   22  C19 UNL     1      28.037  -1.018  53.507  1.00  0.00     0.226 C 
HETATM   23  C18 UNL     1      29.325  -1.521  52.964  1.00  0.00     0.066 C 
HETATM   24  C20 UNL     1      26.946  -0.628  52.564  1.00  0.00     0.061 C 
ENDBRANCH  15  16
BRANCH   1  25
HETATM   25  N1  UNL     1      20.272  -0.448  53.425  1.00  0.00    -0.383 N 
HETATM   26  H1  UNL     1      20.072   0.371  52.789  1.00  0.00     0.157 HD
HETATM   27  H2  UNL     1      19.333  -0.873  53.478  1.00  0.00     0.157 HD
ENDBRANCH   1  25
BRANCH  12  28
HETATM   28  O1  UNL     1      20.934   4.691  50.040  1.00  0.00    -0.361 OA
HETATM   29  H7  UNL     1      21.683   5.223  50.500  1.00  0.00     0.217 HD
ENDBRANCH  12  28
TORSDOF 3
ENDMDL
