ROOT
HETATM    1  C4  UNL     1      20.263  -0.686  53.615  1.00  0.00     0.034 A 
HETATM    2  C5  UNL     1      20.714   0.206  52.669  1.00  0.00     0.032 A 
HETATM    3  C6  UNL     1      22.061   0.488  52.661  1.00  0.00     0.034 A 
HETATM    4  C7  UNL     1      22.898  -0.112  53.573  1.00  0.00     0.064 A 
HETATM    5  C8  UNL     1      22.487  -1.017  54.545  1.00  0.00     0.014 A 
HETATM    6  C9  UNL     1      23.600  -1.396  55.264  1.00  0.00     0.152 A 
HETATM    7  N3  UNL     1      24.638  -0.748  54.749  1.00  0.00    -0.184 NA
HETATM    8  N4  UNL     1      24.243   0.019  53.746  1.00  0.00    -0.269 N 
HETATM    9  C18 UNL     1      21.126  -1.290  54.536  1.00  0.00     0.044 A 
ENDROOT
BRANCH   8  10
HETATM   10  C10 UNL     1      25.130   0.848  52.964  1.00  0.00     0.152 C 
BRANCH  10  11
HETATM   11  C11 UNL     1      26.078  -0.094  52.222  1.00  0.00     0.038 C 
BRANCH  11  12
HETATM   12  C12 UNL     1      27.402   0.012  52.750  1.00  0.00     0.006 A 
HETATM   13  C13 UNL     1      28.387  -0.349  53.158  1.00  0.00    -0.060 A 
HETATM   14  C17 UNL     1      27.697  -1.533  52.918  1.00  0.00     0.038 A 
BRANCH  13  15
HETATM   15  C14 UNL     1      29.304  -0.707  53.539  1.00  0.00    -0.065 A 
HETATM   16  C15 UNL     1      30.279  -1.112  53.940  1.00  0.00     0.033 A 
HETATM   17  C16 UNL     1      29.179  -2.039  53.242  1.00  0.00     0.033 A 
ENDBRANCH  13  15
ENDBRANCH  11  12
ENDBRANCH  10  11
ENDBRANCH   8  10
BRANCH   1  18
HETATM   18  N2  UNL     1      18.942  -1.137  53.828  1.00  0.00    -0.344 N 
HETATM   19  H5  UNL     1      18.963  -1.211  54.887  1.00  0.00     0.167 HD
BRANCH  18  20
HETATM   20  C2  UNL     1      17.692  -1.515  53.338  1.00  0.00     0.103 C 
HETATM   21  C3  UNL     1      17.789  -2.799  53.686  1.00  0.00     0.086 C 
BRANCH  20  22
HETATM   22  N1  UNL     1      16.693  -0.752  52.683  1.00  0.00    -0.258 NA
HETATM   23  C1  UNL     1      16.737  -0.419  51.437  1.00  0.00     0.151 C 
ENDBRANCH  20  22
ENDBRANCH  18  20
ENDBRANCH   1  18
TORSDOF 8
ENDMDL
