ROOT
HETATM    1  C1  UNL     1      21.541   0.987  49.042  1.00  0.00     0.050 C 
HETATM    2  C2  UNL     1      22.303   1.990  49.858  1.00  0.00    -0.037 C 
HETATM    3  C3  UNL     1      23.271   2.616  49.211  1.00  0.00     0.002 C 
HETATM    4  C4  UNL     1      24.314   3.629  49.396  1.00  0.00     0.154 C 
HETATM    5  N1  UNL     1      23.786   4.739  50.169  1.00  0.00    -0.345 N 
HETATM    6  C5  UNL     1      24.721   5.822  50.344  1.00  0.00     0.244 C 
HETATM    7  O1  UNL     1      24.304   6.805  51.008  1.00  0.00    -0.268 OA
HETATM    8  C13 UNL     1      22.498   4.991  50.812  1.00  0.00     0.130 C 
HETATM    9  C14 UNL     1      22.497   4.386  52.211  1.00  0.00     0.049 C 
HETATM   10  C15 UNL     1      21.890   3.019  52.159  1.00  0.00     0.005 C 
HETATM   11  C16 UNL     1      21.815   2.079  51.232  1.00  0.00     0.051 C 
ENDROOT
BRANCH  11  12
HETATM   12  N2  UNL     1      21.121   0.909  51.639  1.00  0.00    -0.188 N 
HETATM   13  H17 UNL     1      20.245   0.509  51.255  1.00  0.00     0.184 HD
BRANCH  12  14
HETATM   14  C17 UNL     1      21.747   0.205  52.730  1.00  0.00     0.727 A 
HETATM   15  N3  UNL     1      20.998  -0.414  53.668  1.00  0.00    -0.075 NA
HETATM   16  C18 UNL     1      21.579  -1.082  54.703  1.00  0.00     0.139 A 
HETATM   17  C19 UNL     1      22.956  -1.116  54.779  1.00  0.00     0.053 A 
HETATM   18  C20 UNL     1      23.726  -0.486  53.824  1.00  0.00     0.089 A 
HETATM   19  N5  UNL     1      23.101   0.147  52.843  1.00  0.00    -0.062 NA
BRANCH  18  20
HETATM   20  C21 UNL     1      25.184  -0.485  53.846  1.00  0.00     0.011 A 
HETATM   21  C22 UNL     1      25.834  -0.852  52.686  1.00  0.00     0.017 A 
HETATM   22  C23 UNL     1      27.224  -0.854  52.696  1.00  0.00     0.020 A 
HETATM   23  C24 UNL     1      27.983  -0.514  53.789  1.00  0.00     0.116 A 
HETATM   24  N4  UNL     1      27.299  -0.161  54.900  1.00  0.00    -0.272 NA
HETATM   25  C25 UNL     1      25.949  -0.145  54.935  1.00  0.00     0.130 A 
ENDBRANCH  18  20
ENDBRANCH  12  14
ENDBRANCH  11  12
BRANCH   6  26
HETATM   26  C6  UNL     1      26.046   5.723  49.763  1.00  0.00     0.088 C 
HETATM   27  C7  UNL     1      26.589   6.530  48.877  1.00  0.00     0.003 C 
HETATM   28  C8  UNL     1      26.013   7.715  48.257  1.00  0.00     0.014 C 
HETATM   29  C12 UNL     1      27.958   6.293  48.380  1.00  0.00     0.087 C 
HETATM   30  C9  UNL     1      26.697   8.425  47.374  1.00  0.00     0.002 C 
HETATM   31  C10 UNL     1      28.050   8.087  46.962  1.00  0.00     0.015 C 
HETATM   32  C11 UNL     1      28.419   6.901  47.327  1.00  0.00     0.011 C 
BRANCH  29  33
HETATM   33  O2  UNL     1      28.813   5.396  49.035  1.00  0.00    -0.359 OA
HETATM   34  H11 UNL     1      29.257   4.627  48.551  1.00  0.00     0.217 HD
ENDBRANCH  29  33
ENDBRANCH   6  26
TORSDOF 5
ENDMDL
