ROOT
HETATM    1  C3  UNL     1      24.427   3.256  50.439  1.00  0.00     0.062 A 
HETATM    2  C4  UNL     1      24.452   2.494  51.614  1.00  0.00     0.048 A 
HETATM    3  C5  UNL     1      23.466   1.545  51.866  1.00  0.00     0.023 A 
HETATM    4  C6  UNL     1      23.422   0.757  52.997  1.00  0.00     0.067 A 
HETATM    5  C13 UNL     1      22.392  -0.146  53.127  1.00  0.00     0.089 A 
HETATM    6  C14 UNL     1      22.327  -0.985  54.307  1.00  0.00     0.103 C 
HETATM    7  N3  UNL     1      22.270  -1.660  55.261  1.00  0.00    -0.191 NA
HETATM    8  C15 UNL     1      21.382  -0.332  52.205  1.00  0.00     0.142 A 
HETATM    9  N4  UNL     1      21.447   0.461  51.094  1.00  0.00    -0.259 NA
HETATM   10  C16 UNL     1      22.451   1.348  50.956  1.00  0.00     0.071 A 
HETATM   11  C17 UNL     1      22.474   2.122  49.820  1.00  0.00     0.071 A 
HETATM   12  C18 UNL     1      23.403   3.077  49.490  1.00  0.00     0.097 A 
ENDROOT
BRANCH   4  13
HETATM   13  N2  UNL     1      24.442   0.911  53.976  1.00  0.00    -0.354 N 
HETATM   14  H8  UNL     1      24.350   1.413  54.868  1.00  0.00     0.166 HD
BRANCH  13  15
HETATM   15  C7  UNL     1      25.710   0.324  53.713  1.00  0.00     0.034 A 
HETATM   16  C8  UNL     1      25.802  -0.892  53.058  1.00  0.00     0.032 A 
HETATM   17  C9  UNL     1      26.989  -1.532  52.758  1.00  0.00     0.046 A 
HETATM   18  C10 UNL     1      28.147  -0.891  53.155  1.00  0.00     0.138 A 
HETATM   19  F1  UNL     1      29.331  -1.476  52.887  1.00  0.00    -0.204 F 
HETATM   20  C11 UNL     1      28.123   0.305  53.802  1.00  0.00     0.074 A 
HETATM   21 CL1  UNL     1      29.578   1.139  54.311  1.00  0.00    -0.081 Cl
HETATM   22  C12 UNL     1      26.908   0.889  54.069  1.00  0.00     0.056 A 
ENDBRANCH  13  15
ENDBRANCH   4  13
BRANCH   1  23
HETATM   23  N1  UNL     1      25.525   4.147  50.414  1.00  0.00    -0.388 N 
HETATM   24  H6  UNL     1      25.335   4.942  51.093  1.00  0.00     0.159 HD
BRANCH  23  25
HETATM   25  C2  UNL     1      26.759   4.172  49.690  1.00  0.00     0.115 C 
HETATM   26  C1  UNL     1      26.785   5.398  48.802  1.00  0.00     0.026 C 
ENDBRANCH  23  25
ENDBRANCH   1  23
BRANCH  12  27
HETATM   27  O1  UNL     1      23.578   3.910  48.449  1.00  0.00    -0.347 OA
BRANCH  27  28
HETATM   28  C19 UNL     1      22.801   4.955  47.980  1.00  0.00     0.206 C 
BRANCH  28  29
HETATM   29  C20 UNL     1      22.890   6.204  48.804  1.00  0.00     0.297 C 
BRANCH  29  30
HETATM   30  N5  UNL     1      21.753   6.355  49.680  1.00  0.00     0.082 N 
HETATM   31  C21 UNL     1      22.014   6.130  51.060  1.00  0.00     0.309 C 
HETATM   32  C22 UNL     1      20.624   5.690  49.124  1.00  0.00     0.309 C 
ENDBRANCH  29  30
ENDBRANCH  28  29
ENDBRANCH  27  28
ENDBRANCH  12  27
TORSDOF 8
ENDMDL
