ROOT
HETATM    1  C10 UNL     1      22.855   1.419  51.819  1.00  0.00     0.130 A 
HETATM    2  C11 UNL     1      23.845   0.808  52.553  1.00  0.00     0.066 A 
HETATM    3  C12 UNL     1      23.552  -0.008  53.600  1.00  0.00     0.027 A 
HETATM    4  C13 UNL     1      24.638  -0.541  54.256  1.00  0.00     0.081 A 
HETATM    5  N4  UNL     1      24.368  -1.336  55.309  1.00  0.00    -0.240 NA
HETATM    6  C20 UNL     1      23.078  -1.582  55.683  1.00  0.00     0.234 A 
HETATM    7  N5  UNL     1      22.036  -1.034  55.002  1.00  0.00    -0.240 NA
HETATM    8  C21 UNL     1      22.240  -0.231  53.943  1.00  0.00     0.088 A 
HETATM    9  C22 UNL     1      21.251   0.383  53.206  1.00  0.00     0.151 A 
HETATM   10  N6  UNL     1      21.576   1.184  52.173  1.00  0.00    -0.241 NA
ENDROOT
BRANCH   1  11
HETATM   11  N3  UNL     1      23.172   2.273  50.733  1.00  0.00    -0.312 N 
HETATM   12  C9  UNL     1      22.687   2.136  49.423  1.00  0.00     0.223 C 
HETATM   13  O1  UNL     1      21.887   1.171  49.148  1.00  0.00    -0.273 OA
HETATM   14  H18 UNL     1      23.829   3.092  50.904  1.00  0.00     0.170 HD
BRANCH  12  15
HETATM   15  C8  UNL     1      23.013   3.013  48.315  1.00  0.00     0.105 C 
BRANCH  15  16
HETATM   16  C7  UNL     1      22.600   4.449  48.460  1.00  0.00     0.040 C 
BRANCH  16  17
HETATM   17  C6  UNL     1      23.818   5.208  48.932  1.00  0.00     0.275 C 
BRANCH  17  18
HETATM   18  N2  UNL     1      23.579   5.690  50.268  1.00  0.00     0.121 N 
HETATM   19  C1  UNL     1      24.386   6.835  50.619  1.00  0.00     0.451 C 
HETATM   20  C2  UNL     1      23.948   8.138  50.010  1.00  0.00     0.068 C 
HETATM   21  C3  UNL     1      22.485   8.289  49.784  1.00  0.00     0.006 C 
HETATM   22  C4  UNL     1      21.783   7.349  50.724  1.00  0.00     0.030 C 
HETATM   23  C5  UNL     1      22.173   5.935  50.522  1.00  0.00     0.275 C 
BRANCH  19  24
HETATM   24  N1  UNL     1      24.447   6.930  52.060  1.00  0.00     0.112 N 
HETATM   25  H1  UNL     1      24.994   6.112  52.405  1.00  0.00     0.315 HD
HETATM   26  H2  UNL     1      23.460   6.914  52.440  1.00  0.00     0.315 HD
ENDBRANCH  19  24
ENDBRANCH  17  18
ENDBRANCH  16  17
ENDBRANCH  15  16
ENDBRANCH  12  15
ENDBRANCH   1  11
BRANCH   4  27
HETATM   27  C14 UNL     1      26.042  -0.381  53.999  1.00  0.00    -0.005 A 
HETATM   28  C15 UNL     1      26.622  -1.429  53.274  1.00  0.00     0.017 A 
HETATM   29  C16 UNL     1      27.971  -1.461  52.906  1.00  0.00     0.045 A 
HETATM   30  C17 UNL     1      28.769  -0.400  53.282  1.00  0.00     0.138 A 
HETATM   31  F1  UNL     1      30.083  -0.408  52.934  1.00  0.00    -0.204 F 
HETATM   32  C18 UNL     1      28.218   0.641  53.996  1.00  0.00     0.073 A 
HETATM   33 CL1  UNL     1      29.213   2.006  54.493  1.00  0.00    -0.081 Cl
HETATM   34  C19 UNL     1      26.883   0.650  54.347  1.00  0.00     0.041 A 
ENDBRANCH   4  27
TORSDOF 7
ENDMDL
