ROOT
HETATM    1  C6  UNL     1      25.567  -0.460  54.021  1.00  0.00     0.087 A 
HETATM    2  C7  UNL     1      25.271   0.258  53.234  1.00  0.00     0.230 A 
HETATM    3  N1  UNL     1      24.942   1.089  52.324  1.00  0.00     0.016 N 
HETATM    4  C8  UNL     1      25.043   1.990  51.439  1.00  0.00     0.299 A 
HETATM    5  C9  UNL     1      23.990   1.242  51.964  1.00  0.00     0.302 A 
HETATM    6  C10 UNL     1      24.676   0.385  52.977  1.00  0.00     0.231 A 
HETATM    7  C11 UNL     1      23.146  -0.224  53.088  1.00  0.00    -0.029 A 
HETATM    8  C12 UNL     1      21.955  -0.603  52.954  1.00  0.00     0.006 A 
HETATM    9  C13 UNL     1      21.216  -1.326  53.989  1.00  0.00    -0.003 A 
HETATM   10  C14 UNL     1      22.175  -1.332  54.903  1.00  0.00    -0.017 A 
HETATM   11  C15 UNL     1      23.352  -0.700  54.611  1.00  0.00     0.051 A 
HETATM   12  O3  UNL     1      24.661  -0.944  54.301  1.00  0.00     0.000 OA
ENDROOT
BRANCH   1  13
HETATM   13  C5  UNL     1      27.118  -0.214  53.925  1.00  0.00    -0.040 A 
HETATM   14  C4  UNL     1      28.043  -1.153  53.369  1.00  0.00     0.008 A 
HETATM   15  C3  UNL     1      29.354  -1.065  53.212  1.00  0.00     0.003 A 
HETATM   16  C2  UNL     1      29.859   0.124  53.668  1.00  0.00     0.036 A 
HETATM   17  C1  UNL     1      29.187   1.142  54.222  1.00  0.00     0.066 A 
HETATM   18  C16 UNL     1      27.859   0.954  54.335  1.00  0.00     0.044 A 
BRANCH  17  19
HETATM   19  O1  UNL     1      29.646   2.344  54.691  1.00  0.00    -0.361 OA
HETATM   20  H1  UNL     1      29.531   2.675  55.624  1.00  0.00     0.217 HD
ENDBRANCH  17  19
ENDBRANCH   1  13
BRANCH   5  21
HETATM   21  O2  UNL     1      22.814   1.677  51.265  1.00  0.00    -0.361 OA
HETATM   22  H6  UNL     1      22.099   2.224  51.732  1.00  0.00     0.212 HD
ENDBRANCH   5  21
TORSDOF 4
ENDMDL
