ROOT
HETATM    1  C3  UNL     1      27.606   0.454  53.124  1.00  0.00     0.001 A 
HETATM    2  C4  UNL     1      28.939   0.100  53.379  1.00  0.00     0.014 A 
HETATM    3  C5  UNL     1      29.455  -1.178  53.420  1.00  0.00     0.043 A 
HETATM    4  C6  UNL     1      28.558  -2.197  53.182  1.00  0.00     0.118 A 
HETATM    5  F1  UNL     1      29.033  -3.462  53.213  1.00  0.00    -0.206 F 
HETATM    6  C7  UNL     1      27.238  -1.890  52.927  1.00  0.00     0.072 A 
HETATM    7  C8  UNL     1      26.730  -0.613  52.890  1.00  0.00     0.044 A 
ENDROOT
BRANCH   7   8
HETATM    8  N2  UNL     1      25.361  -0.339  52.633  1.00  0.00    -0.344 N 
HETATM    9  H10 UNL     1      25.055   0.128  51.756  1.00  0.00     0.167 HD
BRANCH   8  10
HETATM   10  C9  UNL     1      24.326  -0.684  53.557  1.00  0.00     0.108 A 
HETATM   11  N3  UNL     1      23.093  -0.779  53.199  1.00  0.00    -0.236 NA
HETATM   12  C10 UNL     1      22.295  -1.133  54.319  1.00  0.00     0.055 A 
HETATM   13  C15 UNL     1      23.056  -1.259  55.387  1.00  0.00     0.012 A 
HETATM   14  C16 UNL     1      24.486  -0.977  55.006  1.00  0.00     0.108 A 
BRANCH  12  15
HETATM   15  C11 UNL     1      20.857  -1.322  54.284  1.00  0.00     0.027 C 
HETATM   16  C12 UNL     1      19.947  -0.762  53.514  1.00  0.00    -0.024 C 
BRANCH  16  17
HETATM   17  C13 UNL     1      19.638   0.179  52.423  1.00  0.00     0.038 C 
BRANCH  17  18
HETATM   18  C14 UNL     1      20.289   1.536  52.714  1.00  0.00     0.089 C 
HETATM   19 BR1  UNL     1      21.481   1.925  51.260  1.00  0.00    -0.096 Br
ENDBRANCH  17  18
ENDBRANCH  16  17
ENDBRANCH  12  15
ENDBRANCH   8  10
ENDBRANCH   7   8
BRANCH   1  20
HETATM   20  C2  UNL     1      27.200   1.882  53.100  1.00  0.00     0.249 C 
HETATM   21  C1  UNL     1      26.966   2.402  51.693  1.00  0.00     0.047 C 
BRANCH  20  22
HETATM   22  N1  UNL     1      27.976   2.747  53.928  1.00  0.00     0.086 N 
HETATM   23  H5  UNL     1      27.772   3.754  53.714  1.00  0.00     0.313 HD
HETATM   24  H6  UNL     1      27.796   2.603  54.947  1.00  0.00     0.313 HD
ENDBRANCH  20  22
ENDBRANCH   1  20
TORSDOF 7
ENDMDL
