ROOT
HETATM    1  C1  UNL     1      24.156   1.905  52.217  1.00  0.00     0.018 A 
HETATM    2  C2  UNL     1      23.923   0.737  52.775  1.00  0.00     0.014 A 
HETATM    3  C3  UNL     1      25.126   0.002  53.006  1.00  0.00     0.029 A 
HETATM    4  O1  UNL     1      25.130   1.161  52.483  1.00  0.00     0.000 OA
ENDROOT
BRANCH   3   5
HETATM    5  C4  UNL     1      26.473  -0.485  53.114  1.00  0.00    -0.011 C 
HETATM    6  C5  UNL     1      27.361   0.166  53.886  1.00  0.00     0.073 C 
HETATM    7  C6  UNL     1      28.781  -0.098  54.179  1.00  0.00     0.071 C 
HETATM    8  C7  UNL     1      29.345  -1.191  53.730  1.00  0.00     0.069 C 
HETATM    9  C8  UNL     1      28.909  -2.358  52.925  1.00  0.00     0.232 C 
HETATM   10  O4  UNL     1      27.543  -2.577  53.118  1.00  0.00    -0.380 OA
HETATM   11  C9  UNL     1      26.779  -1.714  52.335  1.00  0.00     0.206 C 
BRANCH   6  12
HETATM   12  O2  UNL     1      26.863   1.304  54.539  1.00  0.00    -0.360 OA
HETATM   13  H3  UNL     1      26.014   1.749  54.274  1.00  0.00     0.217 HD
ENDBRANCH   6  12
BRANCH   8  14
HETATM   14  O3  UNL     1      30.683  -1.196  54.145  1.00  0.00    -0.363 OA
HETATM   15  H5  UNL     1      30.934  -1.275  55.142  1.00  0.00     0.217 HD
ENDBRANCH   8  14
ENDBRANCH   3   5
BRANCH   2  16
HETATM   16  C10 UNL     1      22.629   0.183  53.159  1.00  0.00    -0.047 A 
HETATM   17  C11 UNL     1      22.372  -0.497  54.327  1.00  0.00     0.011 A 
HETATM   18  C12 UNL     1      21.101  -0.968  54.565  1.00  0.00     0.037 A 
HETATM   19  C13 UNL     1      20.117  -0.753  53.634  1.00  0.00     0.065 A 
HETATM   20  C14 UNL     1      20.373  -0.067  52.454  1.00  0.00     0.037 A 
HETATM   21  C15 UNL     1      21.667   0.412  52.215  1.00  0.00     0.011 A 
BRANCH  19  22
HETATM   22  O5  UNL     1      18.841  -1.257  53.933  1.00  0.00    -0.361 OA
HETATM   23  H12 UNL     1      18.146  -1.245  53.216  1.00  0.00     0.217 HD
ENDBRANCH  19  22
ENDBRANCH   2  16
TORSDOF 5
ENDMDL
