ROOT
HETATM    1  C1  UNL     1      17.901  -0.278  52.391  1.00  0.00     0.112 C 
HETATM    2  C2  UNL     1      19.183  -0.548  52.972  1.00  0.00    -0.107 C 
HETATM    3  C3  UNL     1      20.208  -0.756  53.415  1.00  0.00    -0.050 C 
ENDROOT
BRANCH   3   4
HETATM    4  C4  UNL     1      21.542  -1.011  54.016  1.00  0.00     0.227 A 
HETATM    5  O1  UNL     1      22.199  -0.126  53.222  1.00  0.00    -0.198 OA
HETATM    6  N1  UNL     1      22.293  -1.846  55.112  1.00  0.00    -0.230 NA
HETATM    7  H4  UNL     1      21.400  -1.880  54.920  1.00  0.00     0.211 HD
BRANCH   6   8
HETATM    8  S1  UNL     1      24.476  -0.448  54.219  1.00  0.00    -0.136 SA
HETATM    9  C5  UNL     1      25.294   0.100  53.894  1.00  0.00     0.135 A 
HETATM   10  C6  UNL     1      26.304   0.780  53.517  1.00  0.00     0.039 A 
HETATM   11  C7  UNL     1      26.666   0.267  54.764  1.00  0.00     0.145 A 
HETATM   12  N5  UNL     1      24.404  -0.496  54.248  1.00  0.00    -0.227 NA
HETATM   13  C9  UNL     1      25.937   1.223  52.393  1.00  0.00     0.137 A 
HETATM   14  N3  UNL     1      27.178   1.853  52.366  1.00  0.00    -0.224 NA
HETATM   15  C8  UNL     1      28.036   1.689  53.426  1.00  0.00     0.230 A 
HETATM   16  N2  UNL     1      27.898   0.976  54.582  1.00  0.00    -0.261 NA
HETATM   17  C16 UNL     1      25.876  -0.617  55.737  1.00  0.00     0.169 A 
HETATM   18  H5  UNL     1      23.421  -1.191  54.629  1.00  0.00     0.106 HD
BRANCH  13  19
HETATM   19  N4  UNL     1      24.964   1.350  51.499  1.00  0.00    -0.341 N 
HETATM   20  H7  UNL     1      24.233   1.272  50.814  1.00  0.00     0.167 HD
BRANCH  19  21
HETATM   21  C10 UNL     1      24.634   2.764  51.339  1.00  0.00     0.035 A 
HETATM   22  C11 UNL     1      23.875   3.307  52.404  1.00  0.00     0.032 A 
HETATM   23  C12 UNL     1      23.422   4.625  52.486  1.00  0.00     0.046 A 
HETATM   24  C13 UNL     1      23.758   5.458  51.429  1.00  0.00     0.138 A 
HETATM   25  F1  UNL     1      23.391   6.762  51.382  1.00  0.00    -0.204 F 
HETATM   26  C14 UNL     1      24.485   5.048  50.351  1.00  0.00     0.074 A 
HETATM   27 CL1  UNL     1      24.987   5.943  48.961  1.00  0.00    -0.081 Cl
HETATM   28  C15 UNL     1      24.879   3.742  50.360  1.00  0.00     0.056 A 
ENDBRANCH  19  21
ENDBRANCH  13  19
ENDBRANCH   6   8
ENDBRANCH   3   4
TORSDOF 5
ENDMDL
