ROOT
HETATM    1  C4  UNL     1      18.649  -0.113  52.200  1.00  0.00    -0.022 A 
HETATM    2  C5  UNL     1      18.317  -1.238  52.964  1.00  0.00     0.014 A 
HETATM    3  C6  UNL     1      19.237  -1.813  53.852  1.00  0.00     0.034 A 
HETATM    4  C7  UNL     1      20.474  -1.242  53.954  1.00  0.00     0.090 A 
HETATM    5  N2  UNL     1      21.417  -1.777  54.795  1.00  0.00    -0.062 NA
HETATM    6  C8  UNL     1      22.615  -1.264  54.898  1.00  0.00     0.725 A 
HETATM    7  N3  UNL     1      22.804  -0.223  54.141  1.00  0.00    -0.045 NA
HETATM    8  C9  UNL     1      21.973   0.384  53.291  1.00  0.00     0.155 A 
HETATM    9  C10 UNL     1      20.718  -0.139  53.169  1.00  0.00     0.040 A 
HETATM   10  C11 UNL     1      19.903   0.497  52.277  1.00  0.00     0.030 A 
HETATM   11  N4  UNL     1      22.532   1.554  52.530  1.00  0.00    -0.370 N 
HETATM   12  C12 UNL     1      23.880   1.370  52.740  1.00  0.00     0.149 C 
HETATM   13  C13 UNL     1      25.164   1.746  52.466  1.00  0.00     0.006 C 
HETATM   14  C14 UNL     1      26.105   1.056  53.198  1.00  0.00    -0.011 A 
HETATM   15  C15 UNL     1      27.383   1.423  52.925  1.00  0.00     0.014 A 
HETATM   16  C16 UNL     1      28.508   0.893  53.501  1.00  0.00     0.020 A 
HETATM   17  C17 UNL     1      28.380  -0.096  54.440  1.00  0.00     0.117 A 
HETATM   18  N5  UNL     1      27.115  -0.457  54.708  1.00  0.00    -0.262 NA
HETATM   19  C18 UNL     1      25.983   0.022  54.181  1.00  0.00     0.070 A 
HETATM   20  C19 UNL     1      25.253  -0.810  54.993  1.00  0.00     0.181 C 
HETATM   21  N6  UNL     1      23.928  -1.092  55.303  1.00  0.00    -0.210 N 
HETATM   22  H8  UNL     1      21.849   2.145  52.089  1.00  0.00     0.161 HD
HETATM   23  H16 UNL     1      23.676  -1.297  56.301  1.00  0.00     0.178 HD
ENDROOT
BRANCH   1  24
HETATM   24  C3  UNL     1      17.666   0.451  51.284  1.00  0.00     0.010 A 
HETATM   25  C2  UNL     1      16.970   1.640  51.387  1.00  0.00     0.125 A 
HETATM   26  N1  UNL     1      16.180   1.721  50.299  1.00  0.00    -0.285 N 
HETATM   27  C1  UNL     1      15.257   2.796  49.961  1.00  0.00     0.179 C 
HETATM   28  N7  UNL     1      16.342   0.654  49.520  1.00  0.00    -0.185 NA
HETATM   29  C20 UNL     1      17.264  -0.157  50.110  1.00  0.00     0.152 A 
ENDBRANCH   1  24
TORSDOF 1
ENDMDL
