ROOT
HETATM    1  C4  UNL     1      25.048   3.158  51.173  1.00  0.00     0.064 A 
HETATM    2  C5  UNL     1      25.707   2.614  52.258  1.00  0.00     0.066 A 
HETATM    3  C6  UNL     1      25.154   1.505  52.851  1.00  0.00     0.087 A 
HETATM    4  C13 UNL     1      23.975   0.984  52.350  1.00  0.00     0.098 A 
HETATM    5  C15 UNL     1      23.337   1.568  51.242  1.00  0.00     0.070 A 
HETATM    6  C16 UNL     1      23.882   2.685  50.630  1.00  0.00     0.059 A 
ENDROOT
BRANCH   3   7
HETATM    7  N2  UNL     1      25.690   0.794  53.994  1.00  0.00    -0.260 N 
HETATM    8  H6  UNL     1      25.058   0.373  54.700  1.00  0.00     0.191 HD
BRANCH   7   9
HETATM    9  N3  UNL     1      27.114   0.781  53.976  1.00  0.00    -0.100 N 
HETATM   10  N4  UNL     1      27.760   1.867  54.417  1.00  0.00    -0.145 NA
HETATM   11  C7  UNL     1      29.098   1.680  54.325  1.00  0.00     0.174 A 
HETATM   12  C8  UNL     1      29.266   0.421  53.803  1.00  0.00     0.079 A 
HETATM   13  C9  UNL     1      30.194  -0.523  53.393  1.00  0.00     0.035 A 
HETATM   14  N5  UNL     1      28.037  -0.085  53.609  1.00  0.00    -0.222 N 
HETATM   15  C10 UNL     1      29.434  -1.599  52.951  1.00  0.00     0.029 A 
HETATM   16  C11 UNL     1      28.070  -1.320  53.089  1.00  0.00     0.034 A 
HETATM   17  C12 UNL     1      26.964  -2.223  52.720  1.00  0.00     0.070 C 
ENDBRANCH   7   9
ENDBRANCH   3   7
BRANCH   4  18
HETATM   18  O2  UNL     1      23.448  -0.135  52.986  1.00  0.00    -0.354 OA
HETATM   19  C14 UNL     1      22.078  -0.502  52.918  1.00  0.00     0.210 C 
ENDBRANCH   4  18
BRANCH   1  20
HETATM   20  N1  UNL     1      25.701   4.309  50.657  1.00  0.00    -0.322 N 
HETATM   21  C3  UNL     1      26.621   4.095  49.594  1.00  0.00     0.244 C 
HETATM   22  O1  UNL     1      26.692   2.854  49.244  1.00  0.00    -0.268 OA
HETATM   23  H4  UNL     1      25.739   5.379  50.746  1.00  0.00     0.169 HD
BRANCH  21  24
HETATM   24  C2  UNL     1      27.551   4.757  48.714  1.00  0.00     0.064 C 
HETATM   25  C1  UNL     1      27.284   6.015  48.480  1.00  0.00     0.017 C 
ENDBRANCH  21  24
ENDBRANCH   1  20
BRANCH   6  26
HETATM   26  N6  UNL     1      23.226   3.234  49.505  1.00  0.00    -0.382 N 
HETATM   27  C17 UNL     1      23.001   2.569  48.250  1.00  0.00     0.150 C 
BRANCH  26  28
HETATM   28  C18 UNL     1      22.681   4.571  49.463  1.00  0.00     0.152 C 
BRANCH  28  29
HETATM   29  C19 UNL     1      21.161   4.588  49.599  1.00  0.00     0.291 C 
BRANCH  29  30
HETATM   30  N7  UNL     1      20.799   5.035  50.948  1.00  0.00     0.081 N 
HETATM   31  C20 UNL     1      20.423   3.908  51.763  1.00  0.00     0.309 C 
HETATM   32  C21 UNL     1      21.873   5.817  51.469  1.00  0.00     0.309 C 
ENDBRANCH  29  30
ENDBRANCH  28  29
ENDBRANCH  26  28
ENDBRANCH   6  26
TORSDOF 9
ENDMDL
