ROOT
HETATM    1  C1  UNL     1      25.125   0.407  53.400  1.00  0.00     0.274 C 
HETATM    2  C2  UNL     1      24.024   1.419  53.333  1.00  0.00     0.015 C 
HETATM    3  C3  UNL     1      24.118   2.442  52.498  1.00  0.00    -0.061 C 
HETATM    4  C4  UNL     1      23.678   3.764  52.939  1.00  0.00     0.157 C 
HETATM    5  N2  UNL     1      22.793   4.530  52.145  1.00  0.00    -0.354 N 
HETATM    6  C5  UNL     1      21.890   5.312  51.335  1.00  0.00     0.241 C 
HETATM    7  O1  UNL     1      20.937   4.561  51.587  1.00  0.00    -0.269 OA
HETATM    8  C6  UNL     1      21.979   6.523  50.480  1.00  0.00     0.070 C 
HETATM    9  C7  UNL     1      22.932   7.272  49.962  1.00  0.00    -0.017 C 
HETATM   10  C8  UNL     1      24.445   7.414  49.838  1.00  0.00     0.054 C 
HETATM   11  C9  UNL     1      25.037   6.082  50.235  1.00  0.00    -0.023 C 
HETATM   12  C10 UNL     1      25.833   5.305  49.513  1.00  0.00    -0.004 C 
HETATM   13  C11 UNL     1      26.629   4.078  49.304  1.00  0.00    -0.002 C 
HETATM   14  C12 UNL     1      26.762   3.025  50.089  1.00  0.00     0.005 C 
HETATM   15  C13 UNL     1      26.194   2.667  51.409  1.00  0.00     0.149 C 
HETATM   16  C14 UNL     1      24.699   2.459  51.128  1.00  0.00     0.071 C 
HETATM   17  O2  UNL     1      26.759   1.642  52.068  1.00  0.00    -0.369 OA
HETATM   18  C15 UNL     1      26.083   0.459  52.238  1.00  0.00     0.192 C 
HETATM   19  H7  UNL     1      23.258   5.427  52.028  1.00  0.00     0.163 HD
ENDROOT
BRANCH  18  20
HETATM   20  C16 UNL     1      27.158  -0.551  52.581  1.00  0.00    -0.027 A 
HETATM   21  C17 UNL     1      27.077  -1.920  52.478  1.00  0.00     0.010 A 
HETATM   22  C18 UNL     1      28.149  -2.706  52.840  1.00  0.00     0.001 A 
HETATM   23  C19 UNL     1      29.334  -2.183  53.314  1.00  0.00     0.000 A 
HETATM   24  C20 UNL     1      29.427  -0.811  53.422  1.00  0.00     0.001 A 
HETATM   25  C21 UNL     1      28.344  -0.038  53.056  1.00  0.00     0.010 A 
ENDBRANCH  18  20
BRANCH   1  26
HETATM   26  N1  UNL     1      25.938   0.635  54.600  1.00  0.00     0.089 N 
HETATM   27  H1  UNL     1      25.895  -0.184  55.243  1.00  0.00     0.313 HD
HETATM   28  H2  UNL     1      26.896   0.879  54.281  1.00  0.00     0.313 HD
ENDBRANCH   1  26
TORSDOF 2
ENDMDL
