ROOT
HETATM    1  C1  UNL     1      24.698   3.197  49.398  1.00  0.00     0.034 C 
HETATM    2  C2  UNL     1      25.094   2.924  50.823  1.00  0.00     0.099 C 
HETATM    3  C3  UNL     1      26.634   2.954  50.839  1.00  0.00     0.195 C 
HETATM    4  O1  UNL     1      27.218   2.489  51.793  1.00  0.00    -0.354 OA
HETATM    5  C4  UNL     1      27.844   1.998  52.794  1.00  0.00     0.305 C 
HETATM    6  C5  UNL     1      26.951   0.922  53.399  1.00  0.00     0.065 C 
HETATM    7  N1  UNL     1      26.619  -0.317  53.432  1.00  0.00    -0.287 NA
HETATM    8  C6  UNL     1      25.254  -0.717  53.080  1.00  0.00     0.206 C 
HETATM    9  C7  UNL     1      24.418   0.513  53.085  1.00  0.00     0.035 C 
HETATM   10  C13 UNL     1      24.789   1.738  53.445  1.00  0.00    -0.033 C 
HETATM   11  C14 UNL     1      25.987   1.596  54.348  1.00  0.00     0.097 C 
HETATM   12  C15 UNL     1      24.296   3.069  53.138  1.00  0.00     0.154 C 
HETATM   13  N3  UNL     1      24.335   3.486  51.757  1.00  0.00    -0.401 N 
ENDROOT
BRANCH  13  14
HETATM   14  C16 UNL     1      23.971   4.849  51.745  1.00  0.00     0.137 C 
BRANCH  14  15
HETATM   15  C17 UNL     1      22.635   5.326  52.112  1.00  0.00     0.136 C 
BRANCH  15  16
HETATM   16  N4  UNL     1      21.672   4.622  51.269  1.00  0.00    -0.407 N 
HETATM   17  C18 UNL     1      20.665   3.907  51.903  1.00  0.00     0.143 C 
HETATM   18  C19 UNL     1      19.417   3.867  51.036  1.00  0.00     0.187 C 
HETATM   19  O3  UNL     1      19.265   5.091  50.367  1.00  0.00    -0.388 OA
HETATM   20  C20 UNL     1      20.263   5.276  49.428  1.00  0.00     0.187 C 
HETATM   21  C21 UNL     1      21.650   4.942  49.917  1.00  0.00     0.143 C 
ENDBRANCH  15  16
ENDBRANCH  14  15
ENDBRANCH  13  14
BRANCH   9  22
HETATM   22  N2  UNL     1      23.033   0.418  52.656  1.00  0.00    -0.354 N 
HETATM   23  C8  UNL     1      22.692   0.757  51.297  1.00  0.00     0.110 A 
HETATM   24  C9  UNL     1      21.502   0.709  50.727  1.00  0.00     0.026 A 
HETATM   25 BR1  UNL     1      21.171   1.176  48.930  1.00  0.00    -0.050 Br
HETATM   26  C10 UNL     1      20.395   0.283  51.568  1.00  0.00     0.018 A 
HETATM   27  C11 UNL     1      20.699  -0.009  52.816  1.00  0.00    -0.005 A 
HETATM   28  C12 UNL     1      21.971   0.009  53.556  1.00  0.00     0.155 A 
ENDBRANCH   9  22
BRANCH   5  29
HETATM   29  O2  UNL     1      28.067   2.937  53.870  1.00  0.00    -0.366 OA
HETATM   30  H8  UNL     1      29.020   2.992  54.043  1.00  0.00     0.213 HD
ENDBRANCH   5  29
TORSDOF 5
ENDMDL
