ROOT
HETATM    1  C8  UNL     1      23.684   3.854  51.197  1.00  0.00     0.195 C 
HETATM    2  C9  UNL     1      24.930   4.106  50.450  1.00  0.00     0.041 C 
HETATM    3 CL1  UNL     1      24.215   3.161  49.164  1.00  0.00    -0.086 Cl
HETATM    4  C10 UNL     1      26.097   4.409  49.948  1.00  0.00     0.015 C 
HETATM    5  C11 UNL     1      27.203   4.533  48.978  1.00  0.00     0.148 C 
HETATM    6  N1  UNL     1      27.588   5.940  48.822  1.00  0.00    -0.385 N 
HETATM    7  C12 UNL     1      26.608   6.946  48.652  1.00  0.00     0.052 A 
HETATM    8  C13 UNL     1      25.366   6.563  48.288  1.00  0.00     0.058 A 
HETATM    9  C14 UNL     1      24.172   7.260  48.113  1.00  0.00     0.044 A 
HETATM   10  N2  UNL     1      24.337   8.570  48.359  1.00  0.00    -0.263 NA
HETATM   11  C15 UNL     1      25.543   9.095  48.732  1.00  0.00     0.142 A 
HETATM   12  C16 UNL     1      26.657   8.298  48.876  1.00  0.00     0.088 A 
HETATM   13  C17 UNL     1      27.962   8.788  49.269  1.00  0.00     0.103 C 
HETATM   14  N3  UNL     1      29.001   9.200  49.588  1.00  0.00    -0.191 NA
HETATM   15  C18 UNL     1      22.841   6.693  47.768  1.00  0.00     0.154 C 
HETATM   16  C19 UNL     1      22.210   5.594  48.372  1.00  0.00     0.051 C 
HETATM   17  C20 UNL     1      20.867   5.349  47.726  1.00  0.00     0.041 C 
HETATM   18  O2  UNL     1      22.203   4.510  49.366  1.00  0.00    -0.377 OA
HETATM   19  C21 UNL     1      22.585   4.800  50.678  1.00  0.00     0.152 C 
HETATM   20  C22 UNL     1      21.453   4.863  51.666  1.00  0.00     0.042 C 
HETATM   21  H11 UNL     1      28.537   6.349  48.822  1.00  0.00     0.160 HD
ENDROOT
BRANCH   1  22
HETATM   22  O1  UNL     1      23.265   2.553  51.159  1.00  0.00    -0.366 OA
BRANCH  22  23
HETATM   23  C7  UNL     1      23.432   1.864  52.348  1.00  0.00     0.262 C 
BRANCH  23  24
HETATM   24  C6  UNL     1      24.646   1.047  52.375  1.00  0.00    -0.080 C 
HETATM   25  C5  UNL     1      25.643   0.371  52.378  1.00  0.00    -0.097 C 
BRANCH  25  26
HETATM   26  C4  UNL     1      26.854  -0.454  52.355  1.00  0.00     0.172 C 
BRANCH  26  27
HETATM   27  C3  UNL     1      27.570  -0.290  53.604  1.00  0.00     0.145 C 
HETATM   28  F1  UNL     1      27.111   0.123  54.770  1.00  0.00    -0.201 F 
BRANCH  27  29
HETATM   29  C2  UNL     1      28.850  -0.565  53.674  1.00  0.00    -0.117 C 
HETATM   30  C1  UNL     1      30.065  -1.092  53.721  1.00  0.00     0.099 C 
ENDBRANCH  27  29
ENDBRANCH  26  27
ENDBRANCH  25  26
ENDBRANCH  23  24
ENDBRANCH  22  23
ENDBRANCH   1  22
TORSDOF 6
ENDMDL
