ROOT
HETATM    1  C1  UNL     1      24.157   3.882  52.845  1.00  0.00     0.000 C 
HETATM    2  O1  UNL     1      24.134   2.548  53.119  1.00  0.00     0.000 OA
HETATM    3  C2  UNL     1      24.500   1.375  52.408  1.00  0.00     0.024 A 
HETATM    4  C3  UNL     1      25.074   1.795  53.682  1.00  0.00     0.046 A 
HETATM    5  C4  UNL     1      26.406   1.753  52.886  1.00  0.00     0.009 C 
HETATM    6  C5  UNL     1      27.297   2.539  53.507  1.00  0.00     0.117 C 
HETATM    7  N1  UNL     1      27.618   1.728  54.428  1.00  0.00    -0.172 NA
HETATM    8  N2  UNL     1      26.961   0.507  54.415  1.00  0.00    -0.281 N 
HETATM    9  C6  UNL     1      28.322  -0.057  54.751  1.00  0.00     0.176 C 
HETATM   10  C7  UNL     1      26.036  -0.531  54.341  1.00  0.00     0.249 C 
HETATM   11  C8  UNL     1      24.655  -0.629  54.064  1.00  0.00     0.020 C 
HETATM   12  C9  UNL     1      23.594  -0.162  53.337  1.00  0.00    -0.004 C 
HETATM   13  C10 UNL     1      23.204   0.830  52.301  1.00  0.00     0.059 A 
HETATM   14 BR1  UNL     1      21.548   1.068  51.446  1.00  0.00    -0.134 Br
HETATM   15  C11 UNL     1      23.503   1.885  51.470  1.00  0.00     0.059 A 
HETATM   16  C12 UNL     1      24.816   2.505  50.836  1.00  0.00    -0.001 C 
HETATM   17  C13 UNL     1      26.212   2.130  50.826  1.00  0.00     0.030 C 
HETATM   18  C14 UNL     1      26.579   0.938  51.688  1.00  0.00     0.067 C 
HETATM   19  N3  UNL     1      26.847   0.078  52.459  1.00  0.00    -0.242 NA
HETATM   20  C15 UNL     1      27.193  -1.234  52.368  1.00  0.00     0.230 C 
HETATM   21  N4  UNL     1      26.684  -1.546  53.509  1.00  0.00    -0.252 NA
ENDROOT
TORSDOF 0
ENDMDL
