ROOT
HETATM    1  C2  UNL     1      23.540   0.146  53.479  1.00  0.00     0.076 A 
HETATM    2  C3  UNL     1      22.506   0.986  53.104  1.00  0.00     0.070 A 
HETATM    3  C4  UNL     1      22.696   1.931  52.121  1.00  0.00     0.074 A 
HETATM    4  N1  UNL     1      21.625   2.715  51.814  1.00  0.00    -0.241 NA
HETATM    5  C5  UNL     1      21.738   3.655  50.867  1.00  0.00     0.236 A 
HETATM    6  N2  UNL     1      22.914   3.795  50.244  1.00  0.00    -0.224 NA
HETATM    7  C6  UNL     1      24.012   3.071  50.481  1.00  0.00     0.142 A 
HETATM    8  C13 UNL     1      23.884   2.112  51.454  1.00  0.00     0.039 A 
HETATM    9  C14 UNL     1      24.864   1.263  51.860  1.00  0.00     0.027 A 
HETATM   10  C15 UNL     1      24.754   0.290  52.838  1.00  0.00    -0.022 A 
ENDROOT
BRANCH   7  11
HETATM   11  N3  UNL     1      25.257   3.216  49.825  1.00  0.00    -0.340 N 
HETATM   12  H6  UNL     1      25.859   2.403  49.601  1.00  0.00     0.167 HD
BRANCH  11  13
HETATM   13  C7  UNL     1      25.897   4.394  49.370  1.00  0.00     0.035 A 
HETATM   14  C8  UNL     1      25.311   5.644  49.271  1.00  0.00     0.032 A 
HETATM   15  C9  UNL     1      25.937   6.771  48.825  1.00  0.00     0.046 A 
HETATM   16  C10 UNL     1      27.255   6.716  48.430  1.00  0.00     0.138 A 
HETATM   17  F1  UNL     1      27.811   7.857  48.002  1.00  0.00    -0.204 F 
HETATM   18  C11 UNL     1      27.872   5.493  48.512  1.00  0.00     0.074 A 
HETATM   19 CL1  UNL     1      29.557   5.485  47.990  1.00  0.00    -0.081 Cl
HETATM   20  C12 UNL     1      27.208   4.386  48.964  1.00  0.00     0.056 A 
ENDBRANCH  11  13
ENDBRANCH   7  11
BRANCH  10  21
HETATM   21  C16 UNL     1      25.833  -0.592  53.234  1.00  0.00     0.068 C 
BRANCH  21  22
HETATM   22  C17 UNL     1      27.218  -0.362  52.888  1.00  0.00     0.109 C 
HETATM   23  N4  UNL     1      27.861  -1.616  52.574  1.00  0.00    -0.414 N 
HETATM   24  C18 UNL     1      28.987  -1.984  53.318  1.00  0.00     0.114 C 
HETATM   25  H14 UNL     1      27.207  -2.363  52.311  1.00  0.00     0.153 HD
HETATM   26  C19 UNL     1      29.948  -0.939  53.710  1.00  0.00     0.022 C 
HETATM   27  C20 UNL     1      29.380   0.433  53.617  1.00  0.00     0.035 C 
HETATM   28  C21 UNL     1      27.923   0.339  54.048  1.00  0.00     0.140 C 
BRANCH  28  29
HETATM   29  O2  UNL     1      27.779  -0.339  55.232  1.00  0.00    -0.394 OA
HETATM   30  H22 UNL     1      26.854  -0.525  55.508  1.00  0.00     0.210 HD
ENDBRANCH  28  29
ENDBRANCH  21  22
ENDBRANCH  10  21
BRANCH   1  31
HETATM   31  O1  UNL     1      23.370  -0.796  54.451  1.00  0.00    -0.355 OA
HETATM   32  C1  UNL     1      22.180  -1.407  54.855  1.00  0.00     0.210 C 
ENDBRANCH   1  31
TORSDOF 6
ENDMDL
