ROOT
HETATM    1  C1  UNL     1      17.878   4.148  43.342  1.00  0.00     0.019 C 
HETATM    2  C2  UNL     1      18.953   4.073  43.866  1.00  0.00     0.065 C 
HETATM    3  C3  UNL     1      20.364   3.930  44.452  1.00  0.00     0.237 C 
HETATM    4  O1  UNL     1      21.528   3.591  44.301  1.00  0.00    -0.269 OA
HETATM    5  N1  UNL     1      20.559   4.329  45.823  1.00  0.00    -0.357 N 
HETATM    6  H4  UNL     1      19.601   4.660  46.182  1.00  0.00     0.162 HD
ENDROOT
BRANCH   5   7
HETATM    7  C4  UNL     1      20.929   4.672  47.157  1.00  0.00     0.137 C 
BRANCH   7   8
HETATM    8  C5  UNL     1      22.050   4.219  47.828  1.00  0.00     0.069 C 
HETATM    9  C6  UNL     1      22.105   2.754  48.360  1.00  0.00    -0.057 C 
HETATM   10  C7  UNL     1      21.503   1.598  48.206  1.00  0.00     0.020 C 
HETATM   11  C8  UNL     1      23.186   2.393  49.384  1.00  0.00     0.020 C 
HETATM   12  C9  UNL     1      24.240   3.116  49.862  1.00  0.00    -0.006 C 
HETATM   13  C10 UNL     1      24.389   3.144  51.353  1.00  0.00     0.148 C 
HETATM   14  C18 UNL     1      25.307   3.998  49.419  1.00  0.00    -0.011 A 
HETATM   15  N2  UNL     1      24.213   4.179  52.177  1.00  0.00    -0.073 NA
HETATM   16  C11 UNL     1      23.815   5.489  51.599  1.00  0.00     0.742 C 
HETATM   17  N3  UNL     1      23.788   6.621  51.047  1.00  0.00     0.014 NA
HETATM   18  N6  UNL     1      22.619   4.971  52.023  1.00  0.00    -0.194 N 
HETATM   19  N4  UNL     1      22.635   7.392  50.861  1.00  0.00    -0.296 N 
HETATM   20  C12 UNL     1      23.357   8.123  49.829  1.00  0.00     0.174 C 
HETATM   21  H12 UNL     1      21.870   7.079  51.524  1.00  0.00     0.182 HD
HETATM   22  C13 UNL     1      23.725   7.336  48.633  1.00  0.00     0.162 C 
HETATM   23  N5  UNL     1      25.118   7.476  48.277  1.00  0.00    -0.277 NA
HETATM   24  C20 UNL     1      23.686   5.889  48.905  1.00  0.00    -0.011 C 
HETATM   25  C14 UNL     1      25.740   6.370  48.601  1.00  0.00     0.063 A 
HETATM   26  C15 UNL     1      27.078   6.037  48.571  1.00  0.00     0.032 A 
HETATM   27  C19 UNL     1      24.923   5.324  49.019  1.00  0.00     0.012 A 
HETATM   28  C16 UNL     1      27.517   4.753  48.940  1.00  0.00     0.003 A 
HETATM   29  C17 UNL     1      26.624   3.838  49.330  1.00  0.00     0.013 A 
HETATM   30  C21 UNL     1      22.597   4.958  48.996  1.00  0.00    -0.036 C 
HETATM   31  C22 UNL     1      21.780   4.468  49.916  1.00  0.00     0.046 C 
HETATM   32  C23 UNL     1      21.032   4.079  51.098  1.00  0.00     0.084 C 
HETATM   33  C25 UNL     1      21.412   4.363  52.390  1.00  0.00     0.143 C 
HETATM   34  H24 UNL     1      22.298   5.671  52.804  1.00  0.00     0.183 HD
BRANCH  32  35
HETATM   35  O2  UNL     1      19.823   3.380  51.301  1.00  0.00    -0.355 OA
HETATM   36  C24 UNL     1      19.923   1.984  51.638  1.00  0.00     0.210 C 
ENDBRANCH  32  35
ENDBRANCH   7   8
ENDBRANCH   5   7
TORSDOF 3
ENDMDL
