ROOT
HETATM    1  C8  UNL     1      25.373   3.825  50.632  1.00  0.00    -0.015 A 
HETATM    2  C9  UNL     1      24.653   4.924  50.510  1.00  0.00     0.012 A 
HETATM    3  C10 UNL     1      23.690   5.305  51.533  1.00  0.00     0.017 A 
HETATM    4  C11 UNL     1      23.510   4.563  52.612  1.00  0.00     0.085 A 
HETATM    5  N3  UNL     1      24.306   3.391  52.702  1.00  0.00    -0.374 N 
HETATM    6  C12 UNL     1      25.291   2.879  51.773  1.00  0.00     0.215 A 
HETATM    7  H15 UNL     1      24.108   2.855  53.600  1.00  0.00     0.161 HD
ENDROOT
BRANCH   1   8
HETATM    8  C7  UNL     1      26.321   3.489  49.584  1.00  0.00     0.028 C 
HETATM    9  C6  UNL     1      27.198   4.258  48.967  1.00  0.00     0.092 C 
BRANCH   9  10
HETATM   10  N2  UNL     1      27.638   5.608  48.972  1.00  0.00    -0.333 N 
HETATM   11  C5  UNL     1      26.946   6.734  48.393  1.00  0.00     0.281 C 
HETATM   12  O2  UNL     1      25.827   6.730  47.774  1.00  0.00    -0.268 OA
HETATM   13  H9  UNL     1      28.553   5.935  49.407  1.00  0.00     0.168 HD
BRANCH  11  14
HETATM   14  C4  UNL     1      27.441   8.114  48.428  1.00  0.00     0.452 C 
HETATM   15  N1  UNL     1      27.400   8.752  49.711  1.00  0.00     0.124 N 
HETATM   16  C1  UNL     1      26.215   9.539  49.953  1.00  0.00     0.314 C 
HETATM   17  C2  UNL     1      28.608   9.529  49.784  1.00  0.00     0.302 C 
HETATM   18  C3  UNL     1      29.554   8.660  48.947  1.00  0.00     0.201 C 
HETATM   19  O1  UNL     1      28.761   8.076  47.992  1.00  0.00    -0.348 OA
ENDBRANCH  11  14
ENDBRANCH   9  10
ENDBRANCH   1   8
BRANCH   6  20
HETATM   20  N4  UNL     1      26.557   2.760  52.465  1.00  0.00    -0.365 N 
HETATM   21  H17 UNL     1      26.973   3.686  52.771  1.00  0.00     0.162 HD
BRANCH  20  22
HETATM   22  C13 UNL     1      27.389   1.649  52.837  1.00  0.00     0.031 A 
HETATM   23  C14 UNL     1      28.630   1.794  53.446  1.00  0.00     0.032 A 
HETATM   24  C15 UNL     1      29.306   0.629  53.722  1.00  0.00     0.046 A 
HETATM   25  C16 UNL     1      28.845  -0.637  53.439  1.00  0.00     0.138 A 
HETATM   26  F1  UNL     1      29.611  -1.705  53.764  1.00  0.00    -0.204 F 
HETATM   27  C17 UNL     1      27.611  -0.751  52.834  1.00  0.00     0.074 A 
HETATM   28 CL1  UNL     1      27.087  -2.391  52.504  1.00  0.00    -0.081 Cl
HETATM   29  C18 UNL     1      26.900   0.394  52.540  1.00  0.00     0.056 A 
ENDBRANCH  20  22
ENDBRANCH   6  20
TORSDOF 5
ENDMDL
