ROOT
HETATM    1  C8  UNL     1      24.986   1.882  52.246  1.00  0.00     0.142 C 
ENDROOT
BRANCH   1   2
HETATM    2  N1  UNL     1      26.026   1.032  51.746  1.00  0.00    -0.377 N 
HETATM    3  H8  UNL     1      25.996   0.626  50.786  1.00  0.00     0.160 HD
BRANCH   2   4
HETATM    4  C7  UNL     1      27.156   0.699  52.540  1.00  0.00     0.034 A 
HETATM    5  C2  UNL     1      27.515  -0.605  52.828  1.00  0.00    -0.036 A 
HETATM    6  C1  UNL     1      26.674  -1.709  52.274  1.00  0.00     0.050 C 
HETATM    7  C3  UNL     1      28.601  -0.956  53.592  1.00  0.00     0.009 A 
HETATM    8  C4  UNL     1      29.404   0.032  54.124  1.00  0.00     0.001 A 
HETATM    9  C5  UNL     1      29.099   1.337  53.874  1.00  0.00     0.002 A 
HETATM   10  C6  UNL     1      28.001   1.633  53.102  1.00  0.00     0.029 A 
ENDBRANCH   2   4
ENDBRANCH   1   2
BRANCH   1  11
HETATM   11  C9  UNL     1      24.936   3.140  51.484  1.00  0.00     0.066 C 
BRANCH  11  12
HETATM   12  P1  UNL     1      25.955   3.289  50.162  1.00  0.00    -0.121 P 
HETATM   13  H11 UNL     1      26.016   4.583  49.516  1.00  0.00     0.055 HD
ENDBRANCH  11  12
ENDBRANCH   1  11
BRANCH   1  14
HETATM   14  C10 UNL     1      23.645   1.239  52.181  1.00  0.00     0.004 A 
HETATM   15  C11 UNL     1      22.601   1.410  51.268  1.00  0.00     0.153 A 
HETATM   16  O1  UNL     1      21.609   0.627  51.614  1.00  0.00    -0.321 OA
HETATM   17  C12 UNL     1      21.909  -0.060  52.695  1.00  0.00     0.085 A 
HETATM   18  C13 UNL     1      21.217  -1.006  53.448  1.00  0.00     0.038 A 
HETATM   19  C17 UNL     1      23.186   0.297  53.083  1.00  0.00     0.008 A 
HETATM   20  C14 UNL     1      21.804  -1.575  54.567  1.00  0.00     0.003 A 
HETATM   21  C15 UNL     1      23.081  -1.206  54.942  1.00  0.00     0.001 A 
HETATM   22  C16 UNL     1      23.788  -0.259  54.196  1.00  0.00     0.015 A 
ENDBRANCH   1  14
TORSDOF 5
ENDMDL
