ROOT
HETATM    1  C2  UNL     1      25.485  -0.656  53.310  1.00  0.00     0.074 C 
HETATM    2  C3  UNL     1      24.064  -0.584  53.204  1.00  0.00     0.042 C 
HETATM    3  C4  UNL     1      23.403   0.535  53.054  1.00  0.00    -0.020 C 
HETATM    4  C5  UNL     1      23.902   1.740  53.087  1.00  0.00     0.062 C 
HETATM    5  C6  UNL     1      25.360   1.752  53.379  1.00  0.00     0.126 C 
HETATM    6  N3  UNL     1      26.498   1.936  54.193  1.00  0.00    -0.233 NA
HETATM    7  C13 UNL     1      27.653   1.607  53.442  1.00  0.00     0.402 C 
HETATM    8  N4  UNL     1      27.244   0.212  53.836  1.00  0.00     0.139 N 
HETATM    9  C14 UNL     1      28.280  -0.492  53.111  1.00  0.00     0.302 A 
HETATM   10  C15 UNL     1      26.946  -0.813  52.957  1.00  0.00     0.313 A 
ENDROOT
BRANCH   5  11
HETATM   11  N2  UNL     1      25.586   1.740  51.907  1.00  0.00    -0.341 N 
HETATM   12  H4  UNL     1      25.836   0.983  51.191  1.00  0.00     0.167 HD
BRANCH  11  13
HETATM   13  C7  UNL     1      25.526   2.805  50.900  1.00  0.00     0.034 A 
HETATM   14  C8  UNL     1      24.245   3.236  50.490  1.00  0.00     0.029 A 
HETATM   15  C9  UNL     1      24.069   4.218  49.547  1.00  0.00     0.004 A 
HETATM   16  C10 UNL     1      25.171   4.803  48.977  1.00  0.00     0.019 A 
HETATM   17  C11 UNL     1      26.428   4.398  49.360  1.00  0.00     0.013 A 
HETATM   18 BR1  UNL     1      27.939   5.230  48.554  1.00  0.00    -0.051 Br
HETATM   19  C12 UNL     1      26.623   3.409  50.313  1.00  0.00     0.048 A 
ENDBRANCH  11  13
ENDBRANCH   5  11
BRANCH   1  20
HETATM   20  N1  UNL     1      25.312  -0.314  54.570  1.00  0.00    -0.224 NA
BRANCH  20  21
HETATM   21  C1  UNL     1      24.895  -1.041  55.661  1.00  0.00     0.376 C 
HETATM   22  O1  UNL     1      25.307  -1.190  56.829  1.00  0.00    -0.281 OA
ENDBRANCH  20  21
ENDBRANCH   1  20
TORSDOF 4
ENDMDL
