ROOT
HETATM    1  N1  UNL     1      28.606  -2.350  53.438  1.00  0.00    -0.197 NA
HETATM    2  C1  UNL     1      29.210  -1.384  53.407  1.00  0.00     0.066 C 
HETATM    3  C2  UNL     1      29.978  -0.116  53.381  1.00  0.00     0.193 C 
ENDROOT
BRANCH   3   4
HETATM    4  C3  UNL     1      29.176   0.948  54.024  1.00  0.00     0.103 C 
HETATM    5  F1  UNL     1      29.505   1.433  55.227  1.00  0.00    -0.210 F 
HETATM    6  C4  UNL     1      28.116   1.514  53.545  1.00  0.00     0.022 C 
BRANCH   6   7
HETATM    7  C5  UNL     1      27.276   1.454  52.364  1.00  0.00     0.051 A 
HETATM    8  C6  UNL     1      26.099   1.239  51.708  1.00  0.00     0.022 A 
HETATM    9  C7  UNL     1      25.803   1.132  51.932  1.00  0.00     0.013 A 
HETATM   10  C9  UNL     1      25.193   0.773  53.063  1.00  0.00     0.180 A 
HETATM   11  P1  UNL     1      25.302   0.959  52.326  1.00  0.00    -0.117 P 
HETATM   12  N2  UNL     1      24.762   0.758  52.764  1.00  0.00     0.000 N 
HETATM   13  C8  UNL     1      24.454  -0.622  53.985  1.00  0.00     0.126 A 
HETATM   14  N4  UNL     1      23.622   0.431  53.617  1.00  0.00     0.000 N 
HETATM   15  N3  UNL     1      25.852  -0.428  53.625  1.00  0.00    -0.405 N 
HETATM   16  H6  UNL     1      26.600  -1.164  53.898  1.00  0.00     0.154 HD
BRANCH  14  17
HETATM   17  C10 UNL     1      22.147   0.518  53.242  1.00  0.00     0.003 C 
HETATM   18  C11 UNL     1      21.262  -0.475  52.931  1.00  0.00     0.039 C 
BRANCH  18  19
HETATM   19  C12 UNL     1      19.937  -0.172  52.605  1.00  0.00     0.090 C 
HETATM   20  C13 UNL     1      19.363   0.570  51.681  1.00  0.00     0.171 C 
HETATM   21  O1  UNL     1      18.029   0.824  51.415  1.00  0.00    -0.358 OA
HETATM   22  C14 UNL     1      17.035   0.106  52.083  1.00  0.00     0.201 C 
HETATM   23  C15 UNL     1      17.653  -1.059  52.817  1.00  0.00     0.202 C 
HETATM   24  O2  UNL     1      18.924  -0.735  53.370  1.00  0.00    -0.347 OA
ENDBRANCH  18  19
ENDBRANCH  14  17
ENDBRANCH   6   7
ENDBRANCH   3   4
TORSDOF 6
ENDMDL
