ROOT
HETATM    1  C9  UNL     1      23.113   2.454  51.613  1.00  0.00     0.727 A 
HETATM    2  N3  UNL     1      22.290   3.267  52.318  1.00  0.00    -0.072 NA
HETATM    3  C10 UNL     1      22.510   4.613  52.260  1.00  0.00     0.181 A 
HETATM    4  C11 UNL     1      23.548   5.134  51.502  1.00  0.00     0.164 A 
HETATM    5  F1  UNL     1      23.682   6.502  51.515  1.00  0.00    -0.202 F 
HETATM    6  C12 UNL     1      24.370   4.278  50.795  1.00  0.00     0.126 A 
HETATM    7  N5  UNL     1      24.104   2.955  50.889  1.00  0.00    -0.059 NA
ENDROOT
BRANCH   1   8
HETATM    8  N2  UNL     1      22.813   1.073  51.731  1.00  0.00    -0.188 N 
HETATM    9  H10 UNL     1      22.459   0.678  50.853  1.00  0.00     0.184 HD
BRANCH   8  10
HETATM   10  C8  UNL     1      22.969   0.292  52.908  1.00  0.00     0.052 A 
HETATM   11  C7  UNL     1      21.838  -0.190  53.523  1.00  0.00     0.030 A 
HETATM   12  C6  UNL     1      21.914  -0.965  54.669  1.00  0.00     0.005 A 
HETATM   13  C5  UNL     1      23.183  -1.208  55.133  1.00  0.00     0.037 A 
HETATM   14  C4  UNL     1      24.350  -0.766  54.578  1.00  0.00     0.071 A 
HETATM   15  C21 UNL     1      24.238   0.018  53.418  1.00  0.00     0.066 A 
BRANCH  14  16
HETATM   16  O2  UNL     1      25.678  -0.922  54.918  1.00  0.00    -0.342 OA
BRANCH  16  17
HETATM   17  C3  UNL     1      26.490   0.220  55.059  1.00  0.00     0.278 C 
BRANCH  17  18
HETATM   18  C2  UNL     1      27.861  -0.041  54.586  1.00  0.00     0.241 C 
HETATM   19  N1  UNL     1      28.575  -1.031  53.861  1.00  0.00    -0.364 N 
HETATM   20  C1  UNL     1      29.991  -0.838  53.626  1.00  0.00     0.149 C 
HETATM   21  H4  UNL     1      27.906  -1.787  53.616  1.00  0.00     0.161 HD
HETATM   22  O1  UNL     1      28.534   0.972  54.995  1.00  0.00    -0.271 OA
ENDBRANCH  17  18
ENDBRANCH  16  17
ENDBRANCH  14  16
ENDBRANCH   8  10
ENDBRANCH   1   8
BRANCH   6  23
HETATM   23  C13 UNL     1      25.436   4.860  50.027  1.00  0.00    -0.001 A 
HETATM   24  C14 UNL     1      26.437   4.009  49.540  1.00  0.00     0.014 A 
HETATM   25  C15 UNL     1      27.488   4.497  48.800  1.00  0.00     0.014 A 
HETATM   26  C16 UNL     1      27.567   5.854  48.525  1.00  0.00     0.011 A 
HETATM   27  C17 UNL     1      26.555   6.668  49.026  1.00  0.00     0.045 A 
HETATM   28  C20 UNL     1      28.573   6.614  47.767  1.00  0.00     0.297 A 
HETATM   29  C18 UNL     1      25.494   6.194  49.770  1.00  0.00     0.044 A 
HETATM   30  N4  UNL     1      26.840   8.005  48.627  1.00  0.00    -0.324 N 
HETATM   31  C19 UNL     1      28.052   8.014  47.865  1.00  0.00     0.261 A 
HETATM   32  H15 UNL     1      26.308   8.871  48.818  1.00  0.00     0.169 HD
HETATM   33  O3  UNL     1      28.638   8.975  47.340  1.00  0.00    -0.270 OA
HETATM   34  F2  UNL     1      29.808   6.638  48.387  1.00  0.00    -0.234 F 
ENDBRANCH   6  23
TORSDOF 6
ENDMDL
