ROOT
HETATM    1  C4  UNL     1      26.273   6.609  49.403  1.00  0.00     0.089 A 
HETATM    2  N2  UNL     1      25.315   6.051  50.064  1.00  0.00    -0.174 NA
HETATM    3  N3  UNL     1      25.232   4.643  50.195  1.00  0.00    -0.271 N 
HETATM    4  C5  UNL     1      24.341   3.695  50.881  1.00  0.00     0.228 C 
HETATM    5  S1  UNL     1      25.625   2.718  51.738  1.00  0.00    -0.099 SA
HETATM    6  N5  UNL     1      26.737   2.936  50.621  1.00  0.00    -0.157 NA
HETATM    7  C14 UNL     1      26.170   3.749  49.577  1.00  0.00     0.229 A 
HETATM    8  C15 UNL     1      27.213   4.516  48.856  1.00  0.00     0.020 A 
HETATM    9  C16 UNL     1      27.298   5.831  48.749  1.00  0.00     0.034 A 
ENDROOT
BRANCH   5  10
HETATM   10  C6  UNL     1      25.052   1.032  51.791  1.00  0.00     0.103 A 
HETATM   11  C7  UNL     1      23.595   0.947  52.031  1.00  0.00     0.006 A 
HETATM   12  C8  UNL     1      23.360   0.245  53.127  1.00  0.00    -0.010 A 
HETATM   13  C9  UNL     1      22.243  -0.169  53.846  1.00  0.00     0.015 A 
HETATM   14  C12 UNL     1      24.555  -0.162  53.663  1.00  0.00     0.064 A 
HETATM   15  C10 UNL     1      22.355  -0.922  54.993  1.00  0.00     0.020 A 
HETATM   16  C11 UNL     1      23.599  -1.294  55.472  1.00  0.00     0.117 A 
HETATM   17  N4  UNL     1      24.706  -0.898  54.782  1.00  0.00    -0.261 NA
HETATM   18  C13 UNL     1      25.581   0.261  52.936  1.00  0.00     0.025 A 
ENDBRANCH   5  10
BRANCH   1  19
HETATM   19  C3  UNL     1      26.330   8.063  49.287  1.00  0.00     0.031 A 
HETATM   20  C2  UNL     1      25.626   8.880  48.455  1.00  0.00     0.127 A 
HETATM   21  N1  UNL     1      26.015  10.160  48.705  1.00  0.00    -0.285 N 
HETATM   22  C1  UNL     1      25.575  11.384  48.097  1.00  0.00     0.179 C 
HETATM   23  N6  UNL     1      26.936  10.172  49.662  1.00  0.00    -0.185 NA
HETATM   24  C17 UNL     1      27.145   8.908  50.033  1.00  0.00     0.154 A 
ENDBRANCH   1  19
TORSDOF 2
ENDMDL
