ROOT
HETATM    1  C8  UNL     1      21.931   0.438  52.231  1.00  0.00     0.189 A 
HETATM    2  C9  UNL     1      20.505   0.031  52.513  1.00  0.00    -0.048 A 
HETATM    3  C10 UNL     1      19.248   0.337  51.745  1.00  0.00     0.046 C 
HETATM    4  C11 UNL     1      20.437  -0.712  53.633  1.00  0.00     0.037 A 
HETATM    5  C12 UNL     1      21.766  -0.884  54.213  1.00  0.00     0.071 A 
HETATM    6  N2  UNL     1      22.188  -1.533  55.304  1.00  0.00    -0.241 NA
HETATM    7  C13 UNL     1      23.488  -1.560  55.652  1.00  0.00     0.235 A 
HETATM    8  N3  UNL     1      24.356  -0.907  54.859  1.00  0.00    -0.224 NA
HETATM    9  C14 UNL     1      23.965  -0.244  53.755  1.00  0.00     0.141 A 
HETATM   10  C21 UNL     1      22.628  -0.204  53.378  1.00  0.00     0.050 A 
ENDROOT
BRANCH   1  11
HETATM   11  O2  UNL     1      22.079   1.785  52.183  1.00  0.00    -0.375 OA
BRANCH  11  12
HETATM   12  C7  UNL     1      22.314   2.389  50.997  1.00  0.00     0.189 C 
BRANCH  12  13
HETATM   13  C6  UNL     1      23.710   2.364  50.467  1.00  0.00     0.149 C 
BRANCH  13  14
HETATM   14  N1  UNL     1      24.221   3.721  50.486  1.00  0.00    -0.379 N 
HETATM   15  C2  UNL     1      25.488   4.032  49.928  1.00  0.00     0.021 C 
HETATM   16  C1  UNL     1      26.448   3.120  49.812  1.00  0.00     0.040 C 
HETATM   17  C3  UNL     1      25.868   5.389  49.424  1.00  0.00     0.223 C 
HETATM   18  O1  UNL     1      24.747   6.234  49.602  1.00  0.00    -0.384 OA
HETATM   19  C4  UNL     1      24.341   6.084  50.907  1.00  0.00     0.187 C 
HETATM   20  C5  UNL     1      23.490   4.834  51.068  1.00  0.00     0.149 C 
ENDBRANCH  13  14
ENDBRANCH  12  13
ENDBRANCH  11  12
ENDBRANCH   1  11
BRANCH   9  21
HETATM   21  N4  UNL     1      24.957   0.418  52.975  1.00  0.00    -0.340 N 
HETATM   22  H19 UNL     1      24.533   1.058  52.283  1.00  0.00     0.167 HD
BRANCH  21  23
HETATM   23  C15 UNL     1      26.362   0.184  53.169  1.00  0.00     0.035 A 
HETATM   24  C16 UNL     1      26.807  -1.054  52.766  1.00  0.00     0.032 A 
HETATM   25  C17 UNL     1      28.161  -1.269  52.959  1.00  0.00     0.046 A 
HETATM   26  C18 UNL     1      29.025  -0.319  53.515  1.00  0.00     0.138 A 
HETATM   27  F1  UNL     1      30.343  -0.544  53.693  1.00  0.00    -0.204 F 
HETATM   28  C19 UNL     1      28.436   0.881  53.872  1.00  0.00     0.074 A 
HETATM   29 CL1  UNL     1      29.504   2.080  54.573  1.00  0.00    -0.081 Cl
HETATM   30  C20 UNL     1      27.096   1.208  53.727  1.00  0.00     0.056 A 
ENDBRANCH  21  23
ENDBRANCH   9  21
TORSDOF 6
ENDMDL
