ROOT
HETATM    1  C2  UNL     1      23.739   1.214  53.130  1.00  0.00     0.103 A 
HETATM    2  C3  UNL     1      22.466   1.476  52.641  1.00  0.00     0.072 A 
HETATM    3  C4  UNL     1      22.135   2.771  52.247  1.00  0.00     0.075 A 
HETATM    4  N1  UNL     1      20.930   3.105  51.765  1.00  0.00    -0.241 NA
HETATM    5  C5  UNL     1      20.649   4.372  51.392  1.00  0.00     0.235 A 
HETATM    6  N2  UNL     1      21.595   5.352  51.499  1.00  0.00    -0.224 NA
HETATM    7  C6  UNL     1      22.823   5.085  51.975  1.00  0.00     0.138 A 
HETATM    8  C16 UNL     1      23.066   3.780  52.343  1.00  0.00     0.041 A 
HETATM    9  C17 UNL     1      24.305   3.455  52.834  1.00  0.00     0.057 A 
HETATM   10  C18 UNL     1      24.715   2.207  53.245  1.00  0.00     0.103 A 
ENDROOT
BRANCH   7  11
HETATM   11  N3  UNL     1      23.790   6.155  52.067  1.00  0.00    -0.369 N 
HETATM   12  H6  UNL     1      24.440   6.289  52.856  1.00  0.00     0.161 HD
BRANCH  11  13
HETATM   13  C7  UNL     1      23.768   7.051  50.922  1.00  0.00     0.088 A 
HETATM   14  C8  UNL     1      25.186   7.524  50.598  1.00  0.00     0.032 A 
HETATM   15  C9  UNL     1      24.355   6.752  49.620  1.00  0.00     0.014 A 
BRANCH  15  16
HETATM   16  C10 UNL     1      24.853   5.420  49.189  1.00  0.00     0.046 C 
BRANCH  16  17
HETATM   17  C11 UNL     1      23.800   4.479  48.722  1.00  0.00    -0.055 A 
HETATM   18  C12 UNL     1      23.709   3.184  48.982  1.00  0.00     0.007 A 
HETATM   19  C13 UNL     1      22.654   2.337  48.489  1.00  0.00    -0.003 A 
HETATM   20  C14 UNL     1      21.709   2.861  47.731  1.00  0.00    -0.022 A 
HETATM   21  C15 UNL     1      21.332   4.173  47.156  1.00  0.00     0.063 A 
HETATM   22  P1  UNL     1      22.598   5.413  47.696  1.00  0.00    -0.096 P 
HETATM   23  H18 UNL     1      23.337   5.906  46.552  1.00  0.00     0.062 HD
ENDBRANCH  16  17
ENDBRANCH  15  16
ENDBRANCH  11  13
ENDBRANCH   7  11
BRANCH  10  24
HETATM   24  O2  UNL     1      25.844   1.679  53.747  1.00  0.00    -0.347 OA
BRANCH  24  25
HETATM   25  C19 UNL     1      27.163   1.768  53.342  1.00  0.00     0.206 C 
BRANCH  25  26
HETATM   26  C20 UNL     1      28.061   0.948  54.194  1.00  0.00     0.299 C 
BRANCH  26  27
HETATM   27  N4  UNL     1      28.153  -0.435  53.817  1.00  0.00     0.094 N 
HETATM   28  C21 UNL     1      29.463  -0.865  53.425  1.00  0.00     0.298 C 
HETATM   29  C22 UNL     1      29.570  -2.348  53.306  1.00  0.00     0.198 C 
HETATM   30  O3  UNL     1      28.313  -2.936  53.363  1.00  0.00    -0.388 OA
HETATM   31  C23 UNL     1      27.390  -2.346  52.501  1.00  0.00     0.198 C 
HETATM   32  C24 UNL     1      27.217  -0.867  52.828  1.00  0.00     0.298 C 
ENDBRANCH  26  27
ENDBRANCH  25  26
ENDBRANCH  24  25
ENDBRANCH  10  24
BRANCH   1  33
HETATM   33  O1  UNL     1      23.901  -0.103  53.470  1.00  0.00    -0.353 OA
HETATM   34  C1  UNL     1      22.969  -0.821  54.249  1.00  0.00     0.210 C 
ENDBRANCH   1  33
TORSDOF 9
ENDMDL
