ROOT
HETATM    1  C4  UNL     1      25.090  -0.727  54.305  1.00  0.00     0.036 A 
HETATM    2  C5  UNL     1      24.442  -1.341  55.357  1.00  0.00     0.032 A 
HETATM    3  C6  UNL     1      23.065  -1.289  55.397  1.00  0.00     0.035 A 
HETATM    4  C7  UNL     1      22.355  -0.638  54.408  1.00  0.00     0.072 A 
HETATM    5  N2  UNL     1      21.029  -0.645  54.536  1.00  0.00    -0.241 NA
HETATM    6  C8  UNL     1      20.279  -0.035  53.617  1.00  0.00     0.236 A 
HETATM    7  N3  UNL     1      20.902   0.548  52.617  1.00  0.00    -0.224 NA
HETATM    8  C9  UNL     1      22.214   0.620  52.384  1.00  0.00     0.142 A 
HETATM    9  C16 UNL     1      22.958  -0.011  53.339  1.00  0.00     0.041 A 
HETATM   10  C17 UNL     1      24.324  -0.094  53.349  1.00  0.00     0.047 A 
ENDROOT
BRANCH   8  11
HETATM   11  N4  UNL     1      22.864   1.253  51.301  1.00  0.00    -0.340 N 
HETATM   12  H8  UNL     1      23.085   0.746  50.425  1.00  0.00     0.167 HD
BRANCH  11  13
HETATM   13  C10 UNL     1      23.310   2.596  51.190  1.00  0.00     0.034 A 
HETATM   14  C11 UNL     1      22.709   3.687  51.799  1.00  0.00     0.029 A 
HETATM   15  C12 UNL     1      23.159   4.977  51.676  1.00  0.00     0.003 A 
HETATM   16  C13 UNL     1      24.258   5.262  50.923  1.00  0.00     0.012 A 
HETATM   17  C14 UNL     1      24.888   4.205  50.299  1.00  0.00    -0.035 A 
HETATM   18  C15 UNL     1      24.400   2.926  50.450  1.00  0.00     0.041 A 
BRANCH  17  19
HETATM   19  P1  UNL     1      26.363   4.636  49.296  1.00  0.00    -0.106 P 
HETATM   20  H12 UNL     1      26.765   6.005  49.499  1.00  0.00     0.059 HD
HETATM   21  H13 UNL     1      27.441   3.684  49.466  1.00  0.00     0.059 HD
ENDBRANCH  17  19
ENDBRANCH  11  13
ENDBRANCH   8  11
BRANCH   1  22
HETATM   22  N1  UNL     1      26.515  -0.764  54.236  1.00  0.00    -0.324 N 
HETATM   23  C3  UNL     1      27.436   0.253  54.609  1.00  0.00     0.244 C 
HETATM   24  O1  UNL     1      26.815   1.257  55.033  1.00  0.00    -0.268 OA
HETATM   25  H4  UNL     1      26.743  -1.709  53.850  1.00  0.00     0.169 HD
BRANCH  23  26
HETATM   26  C2  UNL     1      28.849  -0.032  54.443  1.00  0.00     0.064 C 
HETATM   27  C1  UNL     1      29.439  -0.920  53.668  1.00  0.00     0.017 C 
ENDBRANCH  23  26
ENDBRANCH   1  22
TORSDOF 5
ENDMDL
