ROOT
HETATM    1  C3  UNL     1      24.725   5.133  50.492  1.00  0.00     0.246 C 
HETATM    2  C4  UNL     1      24.053   4.697  49.261  1.00  0.00     0.168 C 
HETATM    3  N2  UNL     1      23.354   3.399  49.290  1.00  0.00    -0.403 N 
HETATM    4  C5  UNL     1      22.703   2.871  50.492  1.00  0.00     0.099 A 
HETATM    5  C6  UNL     1      21.935   3.507  51.437  1.00  0.00     0.155 A 
HETATM    6  C8  UNL     1      23.130   3.130  52.142  1.00  0.00     0.112 A 
HETATM    7  C9  UNL     1      24.247   2.746  52.675  1.00  0.00     0.018 C 
HETATM    8  C10 UNL     1      23.689   1.290  52.178  1.00  0.00    -0.041 C 
HETATM    9  C11 UNL     1      23.795   0.083  52.743  1.00  0.00     0.095 C 
HETATM   10  C18 UNL     1      22.949   1.376  50.802  1.00  0.00     0.076 C 
HETATM   11  N5  UNL     1      24.390   4.221  51.718  1.00  0.00    -0.378 N 
HETATM   12  H8  UNL     1      23.235   2.696  48.498  1.00  0.00     0.154 HD
HETATM   13  H22 UNL     1      25.273   4.562  52.316  1.00  0.00     0.157 HD
ENDROOT
BRANCH   9  14
HETATM   14  N3  UNL     1      24.473  -0.117  53.970  1.00  0.00    -0.365 N 
HETATM   15  H14 UNL     1      24.030  -0.140  54.899  1.00  0.00     0.165 HD
BRANCH  14  16
HETATM   16  C12 UNL     1      25.896  -0.304  53.906  1.00  0.00     0.035 A 
HETATM   17  C13 UNL     1      26.465  -1.197  53.009  1.00  0.00     0.032 A 
HETATM   18  C14 UNL     1      27.823  -1.425  52.897  1.00  0.00     0.034 A 
HETATM   19  C15 UNL     1      28.671  -0.714  53.735  1.00  0.00     0.065 A 
HETATM   20  C16 UNL     1      28.123   0.184  54.637  1.00  0.00     0.144 A 
HETATM   21  F1  UNL     1      28.983   0.861  55.441  1.00  0.00    -0.204 F 
HETATM   22  C17 UNL     1      26.753   0.392  54.729  1.00  0.00     0.074 A 
BRANCH  19  23
HETATM   23  N4  UNL     1      30.074  -0.941  53.627  1.00  0.00    -0.397 N 
HETATM   24  H17 UNL     1      30.601  -1.330  54.443  1.00  0.00     0.156 HD
HETATM   25  H18 UNL     1      30.513  -0.694  52.700  1.00  0.00     0.156 HD
ENDBRANCH  19  23
ENDBRANCH  14  16
ENDBRANCH   9  14
BRANCH   5  26
HETATM   26  O3  UNL     1      20.830   4.199  52.024  1.00  0.00    -0.376 OA
HETATM   27  C7  UNL     1      19.528   3.957  51.542  1.00  0.00     0.203 C 
ENDBRANCH   5  26
BRANCH   1  28
HETATM   28  O2  UNL     1      24.435   6.393  50.990  1.00  0.00    -0.277 OA
BRANCH  28  29
HETATM   29  C2  UNL     1      25.043   7.568  50.550  1.00  0.00     0.362 C 
HETATM   30  N1  UNL     1      26.428   7.806  50.578  1.00  0.00    -0.341 N 
HETATM   31  C1  UNL     1      26.992   9.051  50.105  1.00  0.00     0.151 C 
HETATM   32  H4  UNL     1      27.070   7.074  50.948  1.00  0.00     0.164 HD
HETATM   33  O1  UNL     1      24.200   8.398  50.120  1.00  0.00    -0.238 OA
ENDBRANCH  28  29
ENDBRANCH   1  28
TORSDOF 6
ENDMDL
