ROOT
HETATM    1  C8  UNL     1      27.168   1.660  53.182  1.00  0.00     0.008 A 
HETATM    2  C9  UNL     1      28.357   2.163  53.645  1.00  0.00     0.131 A 
HETATM    3  N2  UNL     1      29.049   1.454  54.520  1.00  0.00    -0.253 NA
HETATM    4  C10 UNL     1      28.630   0.259  54.970  1.00  0.00     0.233 A 
HETATM    5  N3  UNL     1      27.471  -0.247  54.527  1.00  0.00    -0.241 NA
HETATM    6  C11 UNL     1      26.737   0.442  53.638  1.00  0.00     0.070 A 
ENDROOT
BRANCH   1   7
HETATM    7  C7  UNL     1      26.459   2.331  52.321  1.00  0.00     0.003 C 
BRANCH   7   8
HETATM    8  C6  UNL     1      26.560   2.440  50.851  1.00  0.00     0.119 C 
BRANCH   8   9
HETATM    9  N1  UNL     1      26.958   3.796  50.441  1.00  0.00    -0.295 NA
HETATM   10  H11 UNL     1      27.765   3.781  49.809  1.00  0.00     0.127 HD
BRANCH   9  11
HETATM   11  P1  UNL     1      25.561   4.498  49.576  1.00  0.00    -0.033 P 
HETATM   12  H10 UNL     1      24.834   3.511  48.799  1.00  0.00     0.078 HD
BRANCH  11  13
HETATM   13  C5  UNL     1      24.407   5.200  50.809  1.00  0.00     0.017 C 
HETATM   14  C4  UNL     1      23.361   4.655  51.415  1.00  0.00     0.001 C 
BRANCH  14  15
HETATM   15  C3  UNL     1      22.956   3.272  51.140  1.00  0.00     0.195 C 
BRANCH  15  16
HETATM   16  O1  UNL     1      22.076   3.138  50.074  1.00  0.00    -0.388 OA
BRANCH  16  17
HETATM   17  C2  UNL     1      22.386   1.975  49.387  1.00  0.00     0.163 C 
HETATM   18  C1  UNL     1      22.524   2.324  47.899  1.00  0.00     0.033 C 
ENDBRANCH  16  17
ENDBRANCH  15  16
ENDBRANCH  14  15
ENDBRANCH  11  13
ENDBRANCH   9  11
ENDBRANCH   8   9
ENDBRANCH   7   8
ENDBRANCH   1   7
BRANCH   6  19
HETATM   19  C12 UNL     1      25.625  -0.168  53.288  1.00  0.00     0.044 C 
BRANCH  19  20
HETATM   20  C13 UNL     1      24.249  -0.406  53.672  1.00  0.00    -0.033 A 
HETATM   21  C14 UNL     1      23.933  -1.079  54.836  1.00  0.00     0.011 A 
HETATM   22  C15 UNL     1      22.637  -1.361  55.283  1.00  0.00     0.002 A 
HETATM   23  C16 UNL     1      21.674  -0.888  54.422  1.00  0.00     0.019 A 
HETATM   24  C17 UNL     1      21.842  -0.208  53.240  1.00  0.00     0.011 A 
HETATM   25 BR1  UNL     1      20.387   0.377  52.164  1.00  0.00    -0.051 Br
HETATM   26  C18 UNL     1      23.173   0.022  52.886  1.00  0.00     0.030 A 
ENDBRANCH  19  20
ENDBRANCH   6  19
TORSDOF 10
ENDMDL
