ROOT
HETATM    1  N3  UNL     1      23.213   3.647  52.317  1.00  0.00    -0.188 N 
HETATM    2  H6  UNL     1      22.707   4.199  53.067  1.00  0.00     0.184 HD
ENDROOT
BRANCH   1   3
HETATM    3  C8  UNL     1      23.328   4.252  51.040  1.00  0.00     0.727 A 
HETATM    4  N2  UNL     1      22.329   4.582  50.226  1.00  0.00    -0.075 NA
HETATM    5  C7  UNL     1      22.422   5.148  49.028  1.00  0.00     0.139 A 
HETATM    6  C6  UNL     1      23.686   5.432  48.563  1.00  0.00     0.053 A 
HETATM    7  C5  UNL     1      24.741   5.102  49.382  1.00  0.00     0.089 A 
HETATM    8  N6  UNL     1      24.544   4.538  50.563  1.00  0.00    -0.062 NA
BRANCH   7   9
HETATM    9  C4  UNL     1      26.109   5.371  48.957  1.00  0.00     0.011 A 
HETATM   10  C3  UNL     1      27.155   4.474  48.991  1.00  0.00     0.130 A 
HETATM   11  N1  UNL     1      28.396   4.780  48.586  1.00  0.00    -0.272 NA
HETATM   12  C2  UNL     1      28.691   5.989  48.119  1.00  0.00     0.116 A 
HETATM   13  C1  UNL     1      27.736   6.974  48.034  1.00  0.00     0.020 A 
HETATM   14  C18 UNL     1      26.475   6.613  48.462  1.00  0.00     0.017 A 
ENDBRANCH   7   9
ENDBRANCH   1   3
BRANCH   1  15
HETATM   15  C9  UNL     1      23.694   2.380  52.728  1.00  0.00     0.051 A 
HETATM   16  C10 UNL     1      22.941   1.233  52.830  1.00  0.00     0.030 A 
HETATM   17  C11 UNL     1      23.415   0.003  53.230  1.00  0.00     0.004 A 
HETATM   18  C12 UNL     1      24.743  -0.120  53.560  1.00  0.00     0.030 A 
HETATM   19  C13 UNL     1      25.542   1.000  53.473  1.00  0.00     0.042 A 
HETATM   20  C17 UNL     1      25.010   2.203  53.066  1.00  0.00     0.060 A 
BRANCH  19  21
HETATM   21  N4  UNL     1      26.921   0.909  53.806  1.00  0.00    -0.315 N 
HETATM   22  C14 UNL     1      28.104   1.449  53.453  1.00  0.00     0.117 A 
HETATM   23  C15 UNL     1      29.078   0.860  54.230  1.00  0.00     0.135 A 
HETATM   24  N5  UNL     1      28.483  -0.042  55.060  1.00  0.00    -0.254 NA
HETATM   25  C16 UNL     1      27.163  -0.002  54.790  1.00  0.00     0.214 A 
ENDBRANCH  19  21
ENDBRANCH   1  15
TORSDOF 4
ENDMDL
