ROOT
HETATM    1  C2  UNL     1      24.250   2.335  50.972  1.00  0.00     0.104 A 
HETATM    2  C3  UNL     1      24.124   1.349  51.977  1.00  0.00     0.069 A 
HETATM    3  C8  UNL     1      22.902   1.269  52.668  1.00  0.00     0.041 A 
HETATM    4  C9  UNL     1      22.104   2.199  52.190  1.00  0.00    -0.003 A 
HETATM    5  C10 UNL     1      20.797   2.331  52.460  1.00  0.00     0.135 A 
HETATM    6  C11 UNL     1      20.272   1.120  52.946  1.00  0.00     0.014 C 
HETATM    7  C12 UNL     1      20.432   0.401  51.701  1.00  0.00    -0.001 C 
HETATM    8  C13 UNL     1      21.171   0.637  50.514  1.00  0.00     0.001 C 
HETATM    9  C14 UNL     1      21.435   1.578  49.491  1.00  0.00     0.019 C 
HETATM   10  C15 UNL     1      21.990   2.811  49.098  1.00  0.00     0.011 C 
HETATM   11 BR1  UNL     1      21.292   3.778  47.623  1.00  0.00    -0.051 Br
HETATM   12  C16 UNL     1      23.074   3.610  49.615  1.00  0.00     0.032 C 
HETATM   13  C17 UNL     1      23.079   3.021  50.911  1.00  0.00     0.017 A 
HETATM   14  C18 UNL     1      21.821   3.207  51.385  1.00  0.00     0.146 A 
HETATM   15  N3  UNL     1      20.898   4.016  50.967  1.00  0.00    -0.259 NA
HETATM   16  C19 UNL     1      19.626   3.993  51.384  1.00  0.00     0.224 A 
HETATM   17  N4  UNL     1      19.608   2.941  52.289  1.00  0.00    -0.260 NA
ENDROOT
BRANCH   2  18
HETATM   18  N1  UNL     1      25.141   0.465  52.315  1.00  0.00    -0.323 N 
HETATM   19  C4  UNL     1      26.044   0.821  53.355  1.00  0.00     0.247 C 
HETATM   20  O2  UNL     1      25.759   1.966  53.842  1.00  0.00    -0.271 OA
HETATM   21  H4  UNL     1      25.221  -0.440  51.800  1.00  0.00     0.169 HD
BRANCH  19  22
HETATM   22  C5  UNL     1      27.142  -0.063  53.765  1.00  0.00     0.203 C 
HETATM   23  C6  UNL     1      27.148  -1.406  53.068  1.00  0.00     0.215 C 
HETATM   24  O3  UNL     1      28.463  -1.872  53.339  1.00  0.00    -0.301 OA
HETATM   25  C7  UNL     1      29.285  -0.758  53.607  1.00  0.00     0.361 C 
HETATM   26  O4  UNL     1      30.514  -0.954  53.897  1.00  0.00    -0.238 OA
HETATM   27  N2  UNL     1      28.458   0.416  53.474  1.00  0.00    -0.321 N 
HETATM   28  H8  UNL     1      28.943   1.311  53.214  1.00  0.00     0.165 HD
ENDBRANCH  19  22
ENDBRANCH   2  18
BRANCH   1  29
HETATM   29  O1  UNL     1      25.401   2.511  50.217  1.00  0.00    -0.353 OA
HETATM   30  C1  UNL     1      26.516   3.277  50.606  1.00  0.00     0.210 C 
ENDBRANCH   1  29
TORSDOF 3
ENDMDL
