ROOT
HETATM    1  C4  UNL     1      22.152   2.538  50.771  1.00  0.00     0.013 C 
HETATM    2  C5  UNL     1      23.258   2.355  51.533  1.00  0.00     0.075 C 
HETATM    3 CL2  UNL     1      24.269   3.812  51.695  1.00  0.00    -0.081 Cl
HETATM    4  C6  UNL     1      23.851   1.283  52.303  1.00  0.00     0.112 A 
HETATM    5  N1  UNL     1      25.141   1.077  52.532  1.00  0.00    -0.169 NA
HETATM    6  N2  UNL     1      25.407   0.047  53.290  1.00  0.00    -0.265 N 
HETATM    7  C11 UNL     1      24.273  -0.570  53.662  1.00  0.00     0.128 A 
HETATM    8  C12 UNL     1      23.382   0.201  53.049  1.00  0.00     0.025 A 
HETATM    9  C13 UNL     1      21.950  -0.037  53.063  1.00  0.00    -0.002 A 
HETATM   10  C14 UNL     1      21.082  -0.455  54.029  1.00  0.00     0.131 A 
HETATM   11  N4  UNL     1      19.784  -0.531  53.747  1.00  0.00    -0.240 NA
HETATM   12  C15 UNL     1      19.308  -0.211  52.550  1.00  0.00     0.154 A 
HETATM   13  C16 UNL     1      19.961   0.233  51.411  1.00  0.00     0.116 A 
HETATM   14  C17 UNL     1      21.272   0.236  51.919  1.00  0.00     0.054 A 
HETATM   15  O1  UNL     1      20.603   0.672  50.286  1.00  0.00    -0.338 OA
HETATM   16  C18 UNL     1      20.858   2.080  50.097  1.00  0.00     0.161 C 
HETATM   17  C19 UNL     1      20.981   2.261  48.634  1.00  0.00     0.045 C 
ENDROOT
BRANCH   6  18
HETATM   18  C7  UNL     1      26.766  -0.286  53.648  1.00  0.00     0.174 C 
HETATM   19  C8  UNL     1      27.511  -1.105  52.628  1.00  0.00     0.068 C 
HETATM   20  C9  UNL     1      28.716  -1.682  53.347  1.00  0.00     0.273 C 
HETATM   21  N3  UNL     1      29.484  -0.751  54.099  1.00  0.00     0.092 N 
HETATM   22  C10 UNL     1      29.485   0.603  53.642  1.00  0.00     0.345 C 
HETATM   23  H10 UNL     1      30.476  -1.128  54.167  1.00  0.00     0.316 HD
HETATM   24  S1  UNL     1      27.776   1.244  53.821  1.00  0.00    -0.112 SA
ENDBRANCH   6  18
BRANCH   1  25
HETATM   25  C3  UNL     1      22.119   3.914  50.291  1.00  0.00     0.024 A 
HETATM   26  C2  UNL     1      22.494   4.960  49.581  1.00  0.00     0.111 A 
HETATM   27  C1  UNL     1      23.438   5.090  48.425  1.00  0.00     0.032 C 
HETATM   28 CL1  UNL     1      21.144   5.157  51.119  1.00  0.00    -0.176 Cl
ENDBRANCH   1  25
BRANCH  12  29
HETATM   29  N5  UNL     1      18.046  -0.159  51.863  1.00  0.00    -0.382 N 
HETATM   30  H15 UNL     1      17.522   0.618  51.406  1.00  0.00     0.157 HD
HETATM   31  H16 UNL     1      17.352  -0.921  51.663  1.00  0.00     0.157 HD
ENDBRANCH  12  29
TORSDOF 3
ENDMDL
