ROOT
HETATM    1  C3  UNL     1      22.891   2.771  52.349  1.00  0.00     0.265 C 
HETATM    2  C4  UNL     1      21.677   1.849  52.653  1.00  0.00     0.126 C 
HETATM    3  N2  UNL     1      21.572   0.653  53.130  1.00  0.00    -0.254 NA
HETATM    4  C5  UNL     1      22.507  -0.293  53.565  1.00  0.00     0.254 C 
HETATM    5  N3  UNL     1      23.710  -0.785  53.544  1.00  0.00    -0.168 NA
HETATM    6  N4  UNL     1      24.828  -0.374  52.831  1.00  0.00    -0.277 N 
HETATM    7  C6  UNL     1      25.857   0.623  53.099  1.00  0.00     0.056 C 
HETATM    8  C7  UNL     1      27.261   0.348  53.274  1.00  0.00    -0.008 A 
HETATM    9  C8  UNL     1      28.184   1.329  53.527  1.00  0.00     0.014 A 
HETATM   10  C9  UNL     1      29.524   0.957  53.679  1.00  0.00     0.001 A 
HETATM   11  C10 UNL     1      29.848  -0.381  53.564  1.00  0.00     0.000 A 
HETATM   12  C11 UNL     1      28.916  -1.371  53.309  1.00  0.00     0.001 A 
HETATM   13  C12 UNL     1      27.597  -0.984  53.162  1.00  0.00     0.014 A 
HETATM   14  C13 UNL     1      25.300   1.875  53.163  1.00  0.00     0.008 C 
HETATM   15  C14 UNL     1      23.916   2.047  52.973  1.00  0.00     0.070 C 
HETATM   16  H9  UNL     1      25.209  -0.694  51.899  1.00  0.00     0.189 HD
ENDROOT
BRANCH   1  17
HETATM   17  N1  UNL     1      22.929   2.792  50.905  1.00  0.00     0.102 N 
HETATM   18  H5  UNL     1      23.686   2.139  50.566  1.00  0.00     0.317 HD
BRANCH  17  19
HETATM   19  C2  UNL     1      23.243   4.095  50.359  1.00  0.00     0.250 C 
HETATM   20  C1  UNL     1      23.013   5.215  51.332  1.00  0.00     0.048 C 
BRANCH  19  21
HETATM   21  C15 UNL     1      24.636   4.169  49.872  1.00  0.00    -0.026 A 
HETATM   22  C16 UNL     1      25.642   3.227  49.844  1.00  0.00     0.012 A 
HETATM   23  C17 UNL     1      26.875   3.544  49.332  1.00  0.00     0.043 A 
HETATM   24  C18 UNL     1      27.149   4.800  48.834  1.00  0.00     0.116 A 
HETATM   25  F1  UNL     1      28.403   4.973  48.362  1.00  0.00    -0.206 F 
HETATM   26  C19 UNL     1      26.164   5.763  48.848  1.00  0.00     0.043 A 
HETATM   27  C20 UNL     1      24.905   5.444  49.370  1.00  0.00     0.012 A 
ENDBRANCH  19  21
ENDBRANCH  17  19
ENDBRANCH   1  17
TORSDOF 3
ENDMDL
