ROOT
HETATM    1  C3  UNL     1      24.526  -0.251  53.460  1.00  0.00     0.124 A 
HETATM    2  C4  UNL     1      25.202   0.596  52.609  1.00  0.00     0.068 A 
HETATM    3  C5  UNL     1      26.415   1.187  52.884  1.00  0.00     0.044 A 
HETATM    4  C6  UNL     1      27.068   2.031  52.013  1.00  0.00     0.142 A 
HETATM    5  N3  UNL     1      28.222   2.471  52.515  1.00  0.00    -0.224 NA
HETATM    6  C13 UNL     1      28.759   2.194  53.685  1.00  0.00     0.236 A 
HETATM    7  N4  UNL     1      28.085   1.354  54.523  1.00  0.00    -0.240 NA
HETATM    8  C14 UNL     1      26.897   0.840  54.126  1.00  0.00     0.089 A 
HETATM    9  C15 UNL     1      26.241  -0.002  54.994  1.00  0.00     0.151 A 
HETATM   10  N5  UNL     1      25.061  -0.539  54.650  1.00  0.00    -0.241 NA
ENDROOT
BRANCH   4  11
HETATM   11  N2  UNL     1      26.508   2.335  50.752  1.00  0.00    -0.340 N 
HETATM   12  H6  UNL     1      26.228   1.578  50.102  1.00  0.00     0.167 HD
BRANCH  11  13
HETATM   13  C7  UNL     1      26.258   3.600  50.214  1.00  0.00     0.035 A 
HETATM   14  C8  UNL     1      27.024   4.160  49.244  1.00  0.00     0.032 A 
HETATM   15  C9  UNL     1      26.787   5.410  48.698  1.00  0.00     0.046 A 
HETATM   16  C10 UNL     1      25.728   6.179  49.123  1.00  0.00     0.138 A 
HETATM   17  F1  UNL     1      25.417   7.402  48.656  1.00  0.00    -0.204 F 
HETATM   18  C11 UNL     1      24.929   5.651  50.103  1.00  0.00     0.074 A 
HETATM   19 CL1  UNL     1      23.560   6.558  50.705  1.00  0.00    -0.081 Cl
HETATM   20  C12 UNL     1      25.209   4.404  50.611  1.00  0.00     0.056 A 
ENDBRANCH  11  13
ENDBRANCH   4  11
BRANCH   1  21
HETATM   21  N1  UNL     1      23.274  -0.827  53.109  1.00  0.00    -0.368 N 
HETATM   22  H4  UNL     1      23.275  -1.699  52.502  1.00  0.00     0.161 HD
BRANCH  21  23
HETATM   23  C2  UNL     1      22.036  -0.257  53.551  1.00  0.00     0.190 C 
BRANCH  23  24
HETATM   24  C1  UNL     1      21.406  -1.165  54.574  1.00  0.00     0.250 C 
HETATM   25  O1  UNL     1      21.873  -2.068  55.205  1.00  0.00    -0.305 OA
ENDBRANCH  23  24
ENDBRANCH  21  23
ENDBRANCH   1  21
TORSDOF 5
ENDMDL
