ROOT
HETATM    1  C1  UNL     1      24.334  -0.879  54.571  1.00  0.00     0.118 C 
HETATM    2  C2  UNL     1      23.293  -0.542  53.923  1.00  0.00     0.048 C 
HETATM    3  C3  UNL     1      22.128  -0.289  53.281  1.00  0.00     0.053 A 
HETATM    4  C4  UNL     1      20.920  -0.028  52.616  1.00  0.00     0.133 A 
HETATM    5  C5  UNL     1      20.260  -0.977  53.499  1.00  0.00     0.018 A 
HETATM    6  C6  UNL     1      18.878  -1.314  53.467  1.00  0.00     0.018 A 
HETATM    7  C7  UNL     1      18.136  -0.648  52.483  1.00  0.00     0.116 A 
HETATM    8  N1  UNL     1      18.761   0.220  51.682  1.00  0.00    -0.274 NA
HETATM    9  C8  UNL     1      20.040   0.482  51.767  1.00  0.00     0.131 A 
HETATM   10  N2  UNL     1      22.346   0.618  52.358  1.00  0.00    -0.323 N 
HETATM   11  C9  UNL     1      23.484   1.275  52.002  1.00  0.00     0.039 A 
HETATM   12  C10 UNL     1      23.080   2.569  51.597  1.00  0.00     0.030 A 
HETATM   13  C11 UNL     1      23.846   3.659  51.160  1.00  0.00     0.005 A 
HETATM   14  C12 UNL     1      25.218   3.573  51.073  1.00  0.00     0.037 A 
HETATM   15  C13 UNL     1      25.756   2.368  51.440  1.00  0.00     0.070 A 
HETATM   16  C14 UNL     1      24.847   1.384  51.847  1.00  0.00     0.066 A 
HETATM   17  O1  UNL     1      26.864   1.485  51.665  1.00  0.00    -0.349 OA
HETATM   18  C15 UNL     1      27.384   1.759  52.991  1.00  0.00     0.203 C 
HETATM   19  C16 UNL     1      28.394   0.864  53.518  1.00  0.00     0.136 C 
HETATM   20  N3  UNL     1      29.671   0.703  52.928  1.00  0.00    -0.376 N 
HETATM   21  C17 UNL     1      30.072  -0.466  53.739  1.00  0.00     0.197 C 
HETATM   22  N4  UNL     1      29.005  -1.253  53.993  1.00  0.00    -0.273 NA
HETATM   23  C18 UNL     1      27.897  -0.631  53.361  1.00  0.00     0.174 C 
HETATM   24  C19 UNL     1      26.550  -0.713  53.834  1.00  0.00     0.118 C 
HETATM   25  N5  UNL     1      25.619  -0.196  54.630  1.00  0.00    -0.275 NA
HETATM   26  H14 UNL     1      30.447   0.946  52.267  1.00  0.00     0.160 HD
ENDROOT
TORSDOF 0
ENDMDL
