ROOT
HETATM    1  C2  UNL     1      22.797   5.055  49.567  1.00  0.00     0.184 C 
HETATM    2  C3  UNL     1      23.598   3.784  49.424  1.00  0.00    -0.021 C 
HETATM    3  C4  UNL     1      24.656   3.739  50.328  1.00  0.00     0.034 C 
HETATM    4  C5  UNL     1      24.492   2.421  51.119  1.00  0.00     0.206 C 
HETATM    5  N1  UNL     1      22.974   2.561  51.403  1.00  0.00    -0.291 NA
HETATM    6  C6  UNL     1      22.769   3.563  52.189  1.00  0.00     0.025 C 
HETATM    7  C7  UNL     1      23.642   4.594  52.916  1.00  0.00     0.169 C 
HETATM    8  N2  UNL     1      23.250   5.605  52.147  1.00  0.00    -0.401 N 
HETATM    9  C8  UNL     1      22.743   5.679  50.864  1.00  0.00     0.088 C 
HETATM   10  C9  UNL     1      23.831   6.658  50.592  1.00  0.00    -0.024 C 
HETATM   11  C11 UNL     1      25.143   6.190  50.435  1.00  0.00     0.094 C 
HETATM   12  N3  UNL     1      25.645   4.801  50.508  1.00  0.00    -0.367 N 
HETATM   13  C12 UNL     1      21.450   5.456  51.251  1.00  0.00     0.050 C 
HETATM   14  C13 UNL     1      20.429   4.884  50.229  1.00  0.00     0.182 C 
HETATM   15  O2  UNL     1      20.701   3.566  49.919  1.00  0.00    -0.363 OA
HETATM   16  C14 UNL     1      20.614   2.665  48.969  1.00  0.00     0.131 C 
HETATM   17  C15 UNL     1      21.826   2.483  48.486  1.00  0.00     0.002 C 
HETATM   18  C16 UNL     1      23.271   2.774  48.459  1.00  0.00     0.068 C 
HETATM   19  C17 UNL     1      21.427   4.188  52.226  1.00  0.00     0.065 C 
HETATM   20  H9  UNL     1      22.919   6.408  52.698  1.00  0.00     0.154 HD
HETATM   21  H13 UNL     1      26.504   4.309  50.667  1.00  0.00     0.165 HD
ENDROOT
BRANCH   1  22
HETATM   22  O1  UNL     1      23.590   5.751  48.554  1.00  0.00    -0.383 OA
HETATM   23  C1  UNL     1      22.843   6.040  47.449  1.00  0.00     0.202 C 
ENDBRANCH   1  22
BRANCH  10  24
HETATM   24  C10 UNL     1      23.799   8.083  50.456  1.00  0.00     0.123 C 
HETATM   25 BR1  UNL     1      25.480   8.729  49.774  1.00  0.00    -0.092 Br
ENDBRANCH  10  24
TORSDOF 2
ENDMDL
