ROOT
HETATM    1  C6  UNL     1      23.584   4.215  52.620  1.00  0.00     0.724 A 
HETATM    2  N3  UNL     1      22.446   3.541  52.431  1.00  0.00    -0.075 NA
HETATM    3  C7  UNL     1      22.351   2.203  52.529  1.00  0.00     0.147 A 
HETATM    4  C8  UNL     1      23.479   1.470  52.840  1.00  0.00     0.008 A 
HETATM    5  C9  UNL     1      24.671   2.138  53.041  1.00  0.00     0.174 A 
HETATM    6  N4  UNL     1      24.666   3.477  52.921  1.00  0.00    -0.043 NA
HETATM    7  N5  UNL     1      25.847   1.404  53.362  1.00  0.00    -0.227 N 
HETATM    8  N6  UNL     1      27.013   2.087  53.720  1.00  0.00    -0.176 NA
HETATM    9  C10 UNL     1      28.049   1.454  54.163  1.00  0.00     0.213 C 
HETATM   10  C11 UNL     1      28.034  -0.017  54.306  1.00  0.00     0.262 C 
HETATM   11  O1  UNL     1      28.993  -0.701  54.725  1.00  0.00    -0.267 OA
HETATM   12  N7  UNL     1      26.840  -0.703  53.939  1.00  0.00    -0.333 N 
HETATM   13  C12 UNL     1      25.727  -0.055  53.288  1.00  0.00     0.212 C 
HETATM   14  C13 UNL     1      24.405  -0.507  53.876  1.00  0.00     0.053 C 
HETATM   15  C14 UNL     1      23.321   0.004  52.936  1.00  0.00     0.048 C 
HETATM   16  H15 UNL     1      26.640  -1.715  54.092  1.00  0.00     0.165 HD
ENDROOT
BRANCH   1  17
HETATM   17  N2  UNL     1      23.669   5.651  52.510  1.00  0.00    -0.222 N 
HETATM   18  H12 UNL     1      23.867   6.166  53.405  1.00  0.00     0.177 HD
BRANCH  17  19
HETATM   19  C5  UNL     1      23.483   6.251  51.224  1.00  0.00     0.140 C 
BRANCH  19  20
HETATM   20  C4  UNL     1      24.798   6.721  50.650  1.00  0.00     0.040 C 
BRANCH  20  21
HETATM   21  C3  UNL     1      24.944   6.221  49.251  1.00  0.00     0.127 C 
BRANCH  21  22
HETATM   22  N1  UNL     1      26.130   5.393  49.178  1.00  0.00    -0.353 N 
HETATM   23  C15 UNL     1      27.260   5.954  48.546  1.00  0.00     0.215 C 
HETATM   24  C16 UNL     1      28.580   5.349  48.334  1.00  0.00     0.117 C 
HETATM   25  O2  UNL     1      27.284   7.130  48.047  1.00  0.00    -0.274 OA
BRANCH  22  26
HETATM   26  C2  UNL     1      26.192   4.045  49.719  1.00  0.00     0.121 C 
HETATM   27  C1  UNL     1      24.955   3.248  49.396  1.00  0.00     0.026 C 
ENDBRANCH  22  26
ENDBRANCH  21  22
ENDBRANCH  20  21
ENDBRANCH  19  20
ENDBRANCH  17  19
ENDBRANCH   1  17
TORSDOF 6
ENDMDL
