ROOT
HETATM    1  C6  UNL     1      22.121   1.280  52.695  1.00  0.00     0.142 A 
HETATM    2  N2  UNL     1      21.124   0.475  53.120  1.00  0.00    -0.224 NA
HETATM    3  C7  UNL     1      21.411  -0.714  53.735  1.00  0.00     0.236 A 
HETATM    4  N3  UNL     1      22.708  -1.094  53.923  1.00  0.00    -0.241 NA
HETATM    5  C8  UNL     1      23.665  -0.277  53.492  1.00  0.00     0.075 A 
HETATM    6  C9  UNL     1      24.973  -0.663  53.681  1.00  0.00     0.071 A 
HETATM    7  C10 UNL     1      26.035   0.078  53.286  1.00  0.00     0.099 A 
HETATM    8  C11 UNL     1      25.868   1.317  52.644  1.00  0.00     0.088 A 
HETATM    9  C12 UNL     1      24.525   1.667  52.474  1.00  0.00     0.052 A 
HETATM   10  C13 UNL     1      23.440   0.928  52.868  1.00  0.00     0.041 A 
HETATM   11  N4  UNL     1      26.833   2.265  52.135  1.00  0.00    -0.264 N 
HETATM   12  O1  UNL     1      28.061   1.725  52.428  1.00  0.00    -0.278 OA
HETATM   13  C14 UNL     1      28.638   2.482  53.439  1.00  0.00     0.227 C 
HETATM   14  C15 UNL     1      29.021   1.644  54.625  1.00  0.00     0.196 C 
HETATM   15  O2  UNL     1      29.910   0.686  54.357  1.00  0.00    -0.387 OA
HETATM   16  C16 UNL     1      29.712  -0.230  53.391  1.00  0.00     0.194 C 
HETATM   17  C17 UNL     1      28.356  -0.937  53.457  1.00  0.00     0.201 C 
HETATM   18  O3  UNL     1      27.337  -0.039  53.335  1.00  0.00    -0.347 OA
HETATM   19  H8  UNL     1      26.475   3.120  51.676  1.00  0.00     0.194 HD
ENDROOT
BRANCH   1  20
HETATM   20  N1  UNL     1      21.869   2.538  52.039  1.00  0.00    -0.340 N 
HETATM   21  H4  UNL     1      21.598   3.335  52.623  1.00  0.00     0.167 HD
BRANCH  20  22
HETATM   22  C5  UNL     1      22.014   2.600  50.614  1.00  0.00     0.035 A 
HETATM   23  C4  UNL     1      21.786   1.528  49.795  1.00  0.00     0.029 A 
HETATM   24  C3  UNL     1      21.904   1.559  48.419  1.00  0.00     0.004 A 
HETATM   25  C2  UNL     1      22.282   2.780  47.850  1.00  0.00     0.019 A 
HETATM   26  C1  UNL     1      22.526   3.903  48.646  1.00  0.00     0.013 A 
HETATM   27 BR1  UNL     1      23.043   5.568  47.833  1.00  0.00    -0.051 Br
HETATM   28  C18 UNL     1      22.385   3.785  50.012  1.00  0.00     0.048 A 
ENDBRANCH  20  22
ENDBRANCH   1  20
TORSDOF 2
ENDMDL
