ROOT
HETATM    1  C9  UNL     1      24.421   1.402  52.145  1.00  0.00    -0.002 A 
HETATM    2  C10 UNL     1      23.497   0.746  52.933  1.00  0.00     0.011 A 
HETATM    3  C11 UNL     1      23.892  -0.382  53.650  1.00  0.00     0.003 A 
HETATM    4  C12 UNL     1      25.199  -0.823  53.561  1.00  0.00     0.037 A 
HETATM    5  C13 UNL     1      26.126  -0.175  52.778  1.00  0.00     0.076 A 
HETATM    6  C16 UNL     1      25.727   0.956  52.061  1.00  0.00     0.048 A 
ENDROOT
BRANCH   1   7
HETATM    7  C1  UNL     1      23.877   2.588  51.432  1.00  0.00     0.372 C 
BRANCH   7   8
HETATM    8  N1  UNL     1      23.003   3.345  52.312  1.00  0.00     0.107 N 
HETATM    9  H1  UNL     1      23.059   4.366  52.126  1.00  0.00     0.316 HD
HETATM   10  H2  UNL     1      22.016   3.061  52.240  1.00  0.00     0.316 HD
ENDBRANCH   7   8
BRANCH   7  11
HETATM   11  N2  UNL     1      24.936   3.448  50.917  1.00  0.00    -0.261 NA
HETATM   12  C2  UNL     1      24.791   3.922  49.733  1.00  0.00     0.124 C 
BRANCH  12  13
HETATM   13  C3  UNL     1      25.831   4.785  49.187  1.00  0.00    -0.019 A 
HETATM   14  C4  UNL     1      25.581   6.082  48.808  1.00  0.00     0.014 A 
HETATM   15  C5  UNL     1      26.601   6.857  48.295  1.00  0.00     0.024 A 
HETATM   16  C6  UNL     1      27.890   6.394  48.139  1.00  0.00     0.034 A 
HETATM   17 CL1  UNL     1      29.213   7.340  47.495  1.00  0.00    -0.084 Cl
HETATM   18  C7  UNL     1      28.170   5.083  48.516  1.00  0.00     0.024 A 
HETATM   19  C8  UNL     1      27.128   4.342  49.021  1.00  0.00     0.014 A 
ENDBRANCH  12  13
ENDBRANCH   7  11
ENDBRANCH   1   7
BRANCH   5  20
HETATM   20  O1  UNL     1      27.452  -0.573  52.652  1.00  0.00    -0.279 OA
BRANCH  20  21
HETATM   21  C14 UNL     1      28.353  -0.056  53.636  1.00  0.00     0.418 C 
HETATM   22  F1  UNL     1      27.729   0.057  54.866  1.00  0.00    -0.169 F 
HETATM   23  F2  UNL     1      28.656   1.253  53.257  1.00  0.00    -0.169 F 
BRANCH  21  24
HETATM   24  C15 UNL     1      29.599  -0.886  53.754  1.00  0.00     0.455 C 
HETATM   25  F3  UNL     1      30.650  -0.180  53.169  1.00  0.00    -0.205 F 
HETATM   26  F4  UNL     1      29.398  -2.095  53.110  1.00  0.00    -0.205 F 
ENDBRANCH  21  24
ENDBRANCH  20  21
ENDBRANCH   5  20
TORSDOF 7
ENDMDL
