ROOT
HETATM    1  C1  UNL     1      28.222   7.978  47.491  1.00  0.00     0.018 C 
HETATM    2  C2  UNL     1      27.416   7.198  47.933  1.00  0.00    -0.078 C 
HETATM    3  C3  UNL     1      26.450   6.269  48.441  1.00  0.00     0.019 A 
HETATM    4  C4  UNL     1      25.113   6.596  48.396  1.00  0.00     0.021 A 
HETATM    5  C5  UNL     1      24.208   5.683  48.890  1.00  0.00     0.004 A 
HETATM    6  C6  UNL     1      24.674   4.497  49.400  1.00  0.00     0.029 A 
HETATM    7  C7  UNL     1      25.985   4.116  49.473  1.00  0.00     0.035 A 
HETATM    8  C17 UNL     1      26.852   5.061  48.967  1.00  0.00     0.050 A 
ENDROOT
BRANCH   7   9
HETATM    9  N1  UNL     1      26.567   2.936  49.979  1.00  0.00    -0.340 N 
HETATM   10  H5  UNL     1      27.045   2.255  49.367  1.00  0.00     0.167 HD
BRANCH   9  11
HETATM   11  C8  UNL     1      26.573   2.542  51.333  1.00  0.00     0.138 C 
HETATM   12  N2  UNL     1      27.666   2.488  52.006  1.00  0.00    -0.224 NA
HETATM   13  C9  UNL     1      27.716   2.110  53.372  1.00  0.00     0.230 C 
HETATM   14  N3  UNL     1      26.666   1.799  54.088  1.00  0.00    -0.268 NA
HETATM   15  C10 UNL     1      25.352   1.839  53.501  1.00  0.00     0.177 C 
HETATM   16  C11 UNL     1      25.402   2.036  52.033  1.00  0.00     0.014 C 
HETATM   17  C16 UNL     1      24.556   0.618  53.606  1.00  0.00    -0.019 C 
HETATM   18  C12 UNL     1      24.193   1.646  51.593  1.00  0.00    -0.002 C 
HETATM   19  C13 UNL     1      23.417   1.219  52.803  1.00  0.00     0.066 C 
HETATM   20  C14 UNL     1      22.507   0.052  52.533  1.00  0.00     0.187 C 
HETATM   21  O1  UNL     1      22.995  -0.897  53.453  1.00  0.00    -0.362 OA
HETATM   22  C15 UNL     1      24.231  -0.611  53.947  1.00  0.00     0.140 C 
ENDBRANCH   9  11
ENDBRANCH   7   9
TORSDOF 2
ENDMDL
