ROOT
HETATM    1  C1  UNL     1      22.232   4.568  50.459  1.00  0.00     0.174 C 
HETATM    2  N1  UNL     1      23.117   5.486  51.128  1.00  0.00    -0.285 N 
HETATM    3  N2  UNL     1      23.703   5.465  52.431  1.00  0.00    -0.229 NA
HETATM    4  C2  UNL     1      23.753   4.098  52.898  1.00  0.00     0.188 C 
HETATM    5  C3  UNL     1      24.578   3.256  51.928  1.00  0.00     0.109 C 
HETATM    6  N5  UNL     1      25.021   3.977  51.027  1.00  0.00    -0.275 NA
HETATM    7  C10 UNL     1      25.785   3.956  49.879  1.00  0.00     0.157 C 
HETATM    8  C11 UNL     1      25.844   5.248  49.099  1.00  0.00     0.078 C 
HETATM    9  C12 UNL     1      24.588   5.768  48.608  1.00  0.00     0.008 C 
HETATM   10  C13 UNL     1      23.303   5.768  48.203  1.00  0.00     0.032 C 
HETATM   11  C14 UNL     1      23.216   7.047  49.002  1.00  0.00     0.202 C 
HETATM   12  C15 UNL     1      23.523   6.663  50.398  1.00  0.00     0.260 C 
HETATM   13  O2  UNL     1      24.255   7.593  50.884  1.00  0.00    -0.269 OA
HETATM   14  N6  UNL     1      24.504   7.187  48.320  1.00  0.00    -0.372 N 
HETATM   15  C16 UNL     1      25.463   8.065  47.631  1.00  0.00     0.150 C 
HETATM   16  H4  UNL     1      24.645   5.913  52.417  1.00  0.00     0.147 HD
ENDROOT
BRANCH   5  17
HETATM   17  N3  UNL     1      24.770   1.856  52.094  1.00  0.00    -0.373 N 
HETATM   18  H7  UNL     1      24.045   1.258  51.591  1.00  0.00     0.161 HD
BRANCH  17  19
HETATM   19  C4  UNL     1      25.892   1.461  52.904  1.00  0.00     0.085 C 
HETATM   20  C5  UNL     1      25.473   0.676  54.101  1.00  0.00     0.040 C 
HETATM   21  C6  UNL     1      26.605  -0.088  54.738  1.00  0.00     0.097 C 
HETATM   22  N4  UNL     1      27.365  -0.857  53.789  1.00  0.00    -0.287 NA
HETATM   23  C8  UNL     1      26.779  -0.819  52.478  1.00  0.00     0.097 C 
HETATM   24  C9  UNL     1      26.834   0.640  52.012  1.00  0.00     0.040 C 
BRANCH  22  25
HETATM   25  P1  UNL     1      29.060  -0.273  53.638  1.00  0.00     0.010 P 
HETATM   26  H13 UNL     1      29.486  -0.139  52.277  1.00  0.00     0.081 HD
BRANCH  25  27
HETATM   27  C7  UNL     1      29.230   1.270  54.615  1.00  0.00     0.276 C 
HETATM   28  O1  UNL     1      29.016   2.439  54.345  1.00  0.00    -0.301 OA
ENDBRANCH  25  27
ENDBRANCH  22  25
ENDBRANCH  17  19
ENDBRANCH   5  17
TORSDOF 4
ENDMDL
