ROOT
HETATM    1  C6  UNL     1      25.124   0.975  51.944  1.00  0.00     0.111 A 
HETATM    2  N2  UNL     1      23.843   1.138  52.091  1.00  0.00    -0.228 NA
HETATM    3  C7  UNL     1      23.244   2.276  51.484  1.00  0.00     0.235 A 
HETATM    4  N3  UNL     1      23.896   3.153  50.797  1.00  0.00    -0.245 NA
HETATM    5  C8  UNL     1      25.299   2.964  50.640  1.00  0.00     0.055 A 
HETATM    6  C9  UNL     1      25.911   3.834  49.961  1.00  0.00     0.015 A 
HETATM    7  C10 UNL     1      26.806   4.472  49.375  1.00  0.00     0.018 A 
HETATM    8  C11 UNL     1      27.566   5.039  48.862  1.00  0.00     0.081 A 
HETATM    9  N4  UNL     1      28.420   5.707  48.267  1.00  0.00    -0.340 N 
HETATM   10  C19 UNL     1      26.998   6.430  48.180  1.00  0.00     0.214 A 
HETATM   11  O3  UNL     1      26.853   7.614  47.504  1.00  0.00    -0.198 OA
HETATM   12  C20 UNL     1      25.517   6.193  48.684  1.00  0.00     0.077 A 
HETATM   13  O4  UNL     1      25.341   4.987  49.336  1.00  0.00     0.000 OA
HETATM   14  C21 UNL     1      26.098   1.850  51.196  1.00  0.00     0.138 A 
ENDROOT
BRANCH   1  15
HETATM   15  N1  UNL     1      25.662  -0.183  52.577  1.00  0.00    -0.344 N 
HETATM   16  H7  UNL     1      25.161  -1.119  52.515  1.00  0.00     0.167 HD
BRANCH  15  17
HETATM   17  C5  UNL     1      26.884  -0.137  53.317  1.00  0.00     0.032 A 
HETATM   18  C4  UNL     1      28.055  -0.979  53.096  1.00  0.00     0.028 A 
HETATM   19  C3  UNL     1      29.010  -0.678  53.956  1.00  0.00     0.011 A 
HETATM   20  C2  UNL     1      28.549   0.418  54.845  1.00  0.00     0.168 A 
HETATM   21  C22 UNL     1      27.178   0.665  54.326  1.00  0.00     0.038 A 
BRANCH  20  22
HETATM   22  O1  UNL     1      29.375   1.514  54.820  1.00  0.00    -0.383 OA
HETATM   23  C1  UNL     1      28.817   2.400  53.870  1.00  0.00     0.202 C 
ENDBRANCH  20  22
ENDBRANCH  15  17
ENDBRANCH   1  15
BRANCH   9  24
HETATM   24  C12 UNL     1      29.276   6.543  47.574  1.00  0.00     0.128 C 
BRANCH  24  25
HETATM   25  C13 UNL     1      30.727   6.373  48.043  1.00  0.00     0.050 C 
BRANCH  25  26
HETATM   26  C14 UNL     1      31.201   5.013  47.574  1.00  0.00     0.274 C 
BRANCH  26  27
HETATM   27  N5  UNL     1      32.455   4.647  48.148  1.00  0.00     0.092 N 
HETATM   28  C15 UNL     1      33.525   5.561  47.901  1.00  0.00     0.298 C 
HETATM   29  C16 UNL     1      34.834   5.039  48.432  1.00  0.00     0.198 C 
HETATM   30  O2  UNL     1      35.114   3.741  48.059  1.00  0.00    -0.388 OA
HETATM   31  C17 UNL     1      34.180   3.260  47.124  1.00  0.00     0.198 C 
HETATM   32  C18 UNL     1      32.792   3.320  47.735  1.00  0.00     0.298 C 
ENDBRANCH  26  27
ENDBRANCH  25  26
ENDBRANCH  24  25
ENDBRANCH   9  24
TORSDOF 7
ENDMDL
