ROOT
HETATM    1  C2  UNL     1      19.929  -0.266  52.763  1.00  0.00     0.103 A 
HETATM    2  C3  UNL     1      20.365  -0.924  53.894  1.00  0.00     0.072 A 
HETATM    3  C4  UNL     1      21.700  -0.905  54.205  1.00  0.00     0.075 A 
HETATM    4  N1  UNL     1      22.167  -1.535  55.304  1.00  0.00    -0.241 NA
HETATM    5  C5  UNL     1      23.478  -1.506  55.595  1.00  0.00     0.236 A 
HETATM    6  N2  UNL     1      24.373  -0.853  54.808  1.00  0.00    -0.224 NA
HETATM    7  C6  UNL     1      23.963  -0.200  53.689  1.00  0.00     0.142 A 
HETATM    8  C13 UNL     1      22.615  -0.234  53.397  1.00  0.00     0.042 A 
HETATM    9  C14 UNL     1      22.177   0.433  52.251  1.00  0.00     0.057 A 
HETATM   10  C15 UNL     1      20.815   0.413  51.934  1.00  0.00     0.103 A 
ENDROOT
BRANCH   7  11
HETATM   11  N3  UNL     1      24.895   0.485  52.864  1.00  0.00    -0.340 N 
HETATM   12  H6  UNL     1      24.442   1.007  52.101  1.00  0.00     0.167 HD
BRANCH  11  13
HETATM   13  C7  UNL     1      26.299   0.439  53.089  1.00  0.00     0.035 A 
HETATM   14  C8  UNL     1      26.945   1.618  53.393  1.00  0.00     0.032 A 
HETATM   15  C9  UNL     1      28.327   1.547  53.608  1.00  0.00     0.046 A 
HETATM   16  C10 UNL     1      28.963   0.318  53.509  1.00  0.00     0.138 A 
HETATM   17  F1  UNL     1      30.306   0.214  53.714  1.00  0.00    -0.204 F 
HETATM   18  C11 UNL     1      28.288  -0.848  53.203  1.00  0.00     0.074 A 
HETATM   19 CL1  UNL     1      29.071  -2.403  53.072  1.00  0.00    -0.081 Cl
HETATM   20  C12 UNL     1      26.927  -0.787  52.988  1.00  0.00     0.056 A 
ENDBRANCH  11  13
ENDBRANCH   7  11
BRANCH  10  21
HETATM   21  O2  UNL     1      20.226   1.021  50.843  1.00  0.00    -0.347 OA
BRANCH  21  22
HETATM   22  C16 UNL     1      20.830   1.319  49.623  1.00  0.00     0.195 C 
BRANCH  22  23
HETATM   23  C17 UNL     1      21.037   2.826  49.488  1.00  0.00     0.143 C 
BRANCH  23  24
HETATM   24  N4  UNL     1      22.195   3.321  50.122  1.00  0.00    -0.406 N 
HETATM   25  C18 UNL     1      22.027   3.937  51.385  1.00  0.00     0.143 C 
HETATM   26  C19 UNL     1      23.285   4.274  52.109  1.00  0.00     0.187 C 
HETATM   27  O3  UNL     1      24.372   3.480  51.826  1.00  0.00    -0.388 OA
HETATM   28  C20 UNL     1      24.546   3.475  50.424  1.00  0.00     0.187 C 
HETATM   29  C21 UNL     1      23.409   2.620  49.904  1.00  0.00     0.143 C 
ENDBRANCH  23  24
ENDBRANCH  22  23
ENDBRANCH  21  22
ENDBRANCH  10  21
BRANCH   1  30
HETATM   30  O1  UNL     1      18.579  -0.317  52.496  1.00  0.00    -0.353 OA
HETATM   31  C1  UNL     1      17.757  -1.270  53.129  1.00  0.00     0.210 C 
ENDBRANCH   1  30
TORSDOF 7
ENDMDL
