ROOT
HETATM    1  C3  UNL     1      21.864   0.719  52.397  1.00  0.00     0.294 C 
HETATM    2  C4  UNL     1      20.505   0.236  52.158  1.00  0.00     0.124 C 
HETATM    3  N2  UNL     1      19.972  -0.125  53.287  1.00  0.00    -0.299 NA
HETATM    4  C5  UNL     1      20.725  -0.013  54.512  1.00  0.00     0.176 C 
HETATM    5  C6  UNL     1      22.106  -0.529  54.303  1.00  0.00     0.004 C 
HETATM    6  C7  UNL     1      22.731  -0.162  53.199  1.00  0.00    -0.022 C 
ENDROOT
BRANCH   6   7
HETATM    7  C8  UNL     1      24.076  -0.575  52.846  1.00  0.00     0.017 C 
HETATM    8  C9  UNL     1      25.290  -0.389  53.314  1.00  0.00    -0.054 A 
HETATM    9  C10 UNL     1      26.381  -1.046  52.578  1.00  0.00     0.010 A 
HETATM   10  C14 UNL     1      25.657   0.410  54.496  1.00  0.00     0.068 A 
HETATM   11  C11 UNL     1      27.662  -0.998  52.868  1.00  0.00     0.039 A 
HETATM   12  C12 UNL     1      28.098  -0.229  54.025  1.00  0.00     0.088 A 
HETATM   13  C13 UNL     1      27.132   0.360  54.684  1.00  0.00     0.016 A 
BRANCH  12  14
HETATM   14  O1  UNL     1      29.411  -0.101  54.434  1.00  0.00    -0.267 OA
BRANCH  14  15
HETATM   15  N3  UNL     1      30.331   0.262  53.466  1.00  0.00    -0.209 NA
HETATM   16  H13 UNL     1      31.118  -0.389  53.530  1.00  0.00     0.150 HD
HETATM   17  H14 UNL     1      29.892   0.310  52.513  1.00  0.00     0.150 HD
ENDBRANCH  14  15
ENDBRANCH  12  14
ENDBRANCH   6   7
BRANCH   1  18
HETATM   18  N1  UNL     1      21.936   2.055  52.909  1.00  0.00     0.110 N 
HETATM   19  H4  UNL     1      22.079   2.102  53.926  1.00  0.00     0.318 HD
BRANCH  18  20
HETATM   20  C2  UNL     1      22.742   2.973  52.183  1.00  0.00     0.178 A 
HETATM   21  C1  UNL     1      21.964   4.294  52.109  1.00  0.00     0.054 C 
HETATM   22  C15 UNL     1      22.990   2.582  50.781  1.00  0.00     0.016 A 
HETATM   23  C16 UNL     1      24.277   2.526  50.491  1.00  0.00     0.025 A 
HETATM   24  C17 UNL     1      25.049   2.871  51.664  1.00  0.00     0.028 A 
HETATM   25  N4  UNL     1      26.318   2.898  51.895  1.00  0.00    -0.305 NA
HETATM   26  C18 UNL     1      24.090   3.257  52.754  1.00  0.00     0.103 A 
HETATM   27  H20 UNL     1      27.051   2.644  51.189  1.00  0.00     0.186 HD
ENDBRANCH  18  20
ENDBRANCH   1  18
TORSDOF 5
ENDMDL
