ROOT
HETATM    1  C1  UNL     1      26.592   3.786  49.784  1.00  0.00     0.073 C 
HETATM    2  C2  UNL     1      25.603   4.630  50.018  1.00  0.00     0.074 C 
HETATM    3  O1  UNL     1      25.356   5.807  49.326  1.00  0.00    -0.344 OA
HETATM    4  C3  UNL     1      24.533   6.829  49.836  1.00  0.00     0.278 C 
HETATM    5  C4  UNL     1      23.433   6.259  50.693  1.00  0.00     0.248 C 
HETATM    6  O2  UNL     1      22.329   6.889  50.712  1.00  0.00    -0.271 OA
HETATM    7  N1  UNL     1      23.644   5.048  51.451  1.00  0.00    -0.314 N 
HETATM    8  C12 UNL     1      24.742   4.217  51.113  1.00  0.00     0.067 C 
HETATM    9  C13 UNL     1      24.916   3.108  51.800  1.00  0.00     0.041 C 
ENDROOT
BRANCH   7  10
HETATM   10  C5  UNL     1      22.676   4.850  52.474  1.00  0.00     0.134 C 
BRANCH  10  11
HETATM   11  C6  UNL     1      21.743   3.704  52.248  1.00  0.00     0.050 C 
BRANCH  11  12
HETATM   12  C7  UNL     1      20.623   3.968  51.304  1.00  0.00     0.274 C 
BRANCH  12  13
HETATM   13  N2  UNL     1      20.735   3.200  50.081  1.00  0.00     0.092 N 
HETATM   14  C8  UNL     1      21.597   2.053  50.226  1.00  0.00     0.298 C 
HETATM   15  C9  UNL     1      21.555   1.244  48.950  1.00  0.00     0.198 C 
HETATM   16  O3  UNL     1      20.767   1.881  47.993  1.00  0.00    -0.388 OA
HETATM   17  C10 UNL     1      21.326   3.129  47.757  1.00  0.00     0.198 C 
HETATM   18  C11 UNL     1      21.137   4.031  48.960  1.00  0.00     0.298 C 
ENDBRANCH  12  13
ENDBRANCH  11  12
ENDBRANCH  10  11
ENDBRANCH   7  10
BRANCH   9  19
HETATM   19  P1  UNL     1      26.305   2.042  51.358  1.00  0.00    -0.064 P 
HETATM   20  H20 UNL     1      26.072   1.153  50.264  1.00  0.00     0.067 HD
BRANCH  19  21
HETATM   21  C14 UNL     1      27.069   1.293  52.814  1.00  0.00     0.033 A 
HETATM   22  C15 UNL     1      28.213   1.962  53.244  1.00  0.00     0.134 A 
HETATM   23  N3  UNL     1      28.915   1.545  54.312  1.00  0.00    -0.253 NA
HETATM   24  C16 UNL     1      28.507   0.444  54.996  1.00  0.00     0.234 A 
HETATM   25  N4  UNL     1      27.399  -0.225  54.601  1.00  0.00    -0.224 NA
HETATM   26  C17 UNL     1      26.692   0.189  53.532  1.00  0.00     0.141 A 
BRANCH  26  27
HETATM   27  N5  UNL     1      25.515  -0.442  53.045  1.00  0.00    -0.340 N 
HETATM   28  H23 UNL     1      25.774  -0.867  52.148  1.00  0.00     0.167 HD
BRANCH  27  29
HETATM   29  C18 UNL     1      24.227  -0.509  53.613  1.00  0.00     0.033 A 
HETATM   30  C19 UNL     1      24.056  -1.177  54.808  1.00  0.00     0.029 A 
HETATM   31  C20 UNL     1      22.829  -1.259  55.388  1.00  0.00     0.002 A 
HETATM   32  C21 UNL     1      21.779  -0.636  54.709  1.00  0.00     0.000 A 
HETATM   33  C22 UNL     1      21.941   0.037  53.511  1.00  0.00     0.002 A 
HETATM   34  C23 UNL     1      23.204   0.099  52.951  1.00  0.00     0.029 A 
ENDBRANCH  27  29
ENDBRANCH  26  27
ENDBRANCH  19  21
ENDBRANCH   9  19
TORSDOF 8
ENDMDL
