ROOT
HETATM    1  C2  UNL     1      25.788   1.672  53.396  1.00  0.00     0.105 C 
HETATM    2  C3  UNL     1      24.905   0.696  53.381  1.00  0.00     0.050 C 
HETATM    3  C4  UNL     1      23.722   0.640  52.562  1.00  0.00     0.033 C 
HETATM    4  C5  UNL     1      23.464   1.622  51.725  1.00  0.00     0.066 C 
HETATM    5  N3  UNL     1      22.282   1.570  50.934  1.00  0.00    -0.244 NA
HETATM    6  C6  UNL     1      21.963   2.678  50.304  1.00  0.00     0.235 C 
HETATM    7  N4  UNL     1      22.762   3.842  50.387  1.00  0.00    -0.226 NA
HETATM    8  C7  UNL     1      23.863   3.909  51.049  1.00  0.00     0.134 C 
HETATM    9  C14 UNL     1      24.456   2.696  51.580  1.00  0.00     0.205 C 
HETATM   10  N6  UNL     1      25.430   2.791  52.597  1.00  0.00    -0.359 N 
HETATM   11  H13 UNL     1      25.896   3.718  52.755  1.00  0.00     0.162 HD
ENDROOT
BRANCH   8  12
HETATM   12  N5  UNL     1      24.527   5.139  51.054  1.00  0.00    -0.342 N 
HETATM   13  H7  UNL     1      24.236   5.835  51.801  1.00  0.00     0.167 HD
BRANCH  12  14
HETATM   14  C8  UNL     1      25.551   5.556  50.166  1.00  0.00     0.033 A 
HETATM   15  C9  UNL     1      26.396   4.741  49.451  1.00  0.00     0.031 A 
HETATM   16  C10 UNL     1      27.373   5.182  48.591  1.00  0.00     0.021 A 
HETATM   17  C11 UNL     1      27.549   6.538  48.406  1.00  0.00     0.011 A 
HETATM   18 BR1  UNL     1      28.881   7.222  47.230  1.00  0.00    -0.051 Br
HETATM   19  C12 UNL     1      26.732   7.405  49.097  1.00  0.00     0.021 A 
HETATM   20  C13 UNL     1      25.779   6.897  49.936  1.00  0.00     0.031 A 
ENDBRANCH  12  14
ENDBRANCH   8  12
BRANCH   1  21
HETATM   21  N2  UNL     1      26.972   1.795  54.160  1.00  0.00    -0.295 N 
HETATM   22  C1  UNL     1      28.261   2.181  53.718  1.00  0.00     0.319 C 
HETATM   23  N1  UNL     1      29.414   2.284  54.543  1.00  0.00    -0.352 N 
HETATM   24  O1  UNL     1      28.436   2.459  52.525  1.00  0.00    -0.247 OA
HETATM   25  H1  UNL     1      29.556   3.071  55.232  1.00  0.00     0.160 HD
HETATM   26  H2  UNL     1      30.035   1.478  54.331  1.00  0.00     0.160 HD
HETATM   27  H3  UNL     1      26.988   1.596  55.182  1.00  0.00     0.172 HD
ENDBRANCH   1  21
TORSDOF 3
ENDMDL
