ROOT
HETATM    1  C7  UNL     1      26.595   1.212  52.784  1.00  0.00    -0.072 C 
HETATM    2  C8  UNL     1      26.187   0.209  53.548  1.00  0.00    -0.070 C 
HETATM    3  C16 UNL     1      26.743   0.140  54.934  1.00  0.00     0.061 C 
HETATM    4  C17 UNL     1      28.224   0.414  54.877  1.00  0.00    -0.026 C 
HETATM    5  C18 UNL     1      28.665   1.415  54.125  1.00  0.00    -0.026 C 
HETATM    6  C19 UNL     1      27.558   2.124  53.434  1.00  0.00     0.061 C 
ENDROOT
BRANCH   1   7
HETATM    7  C6  UNL     1      26.181   1.470  51.402  1.00  0.00     0.054 C 
BRANCH   7   8
HETATM    8  C5  UNL     1      26.690   2.818  50.946  1.00  0.00     0.126 C 
BRANCH   8   9
HETATM    9  N1  UNL     1      25.720   3.508  50.118  1.00  0.00    -0.390 N 
BRANCH   9  10
HETATM   10  C2  UNL     1      26.048   4.531  49.191  1.00  0.00     0.075 C 
HETATM   11  C1  UNL     1      27.254   4.946  48.774  1.00  0.00     0.029 C 
ENDBRANCH   9  10
BRANCH   9  12
HETATM   12  C3  UNL     1      24.339   3.089  50.285  1.00  0.00     0.129 C 
BRANCH  12  13
HETATM   13  C4  UNL     1      23.387   4.223  50.509  1.00  0.00     0.093 C 
BRANCH  13  14
HETATM   14  P1  UNL     1      23.284   4.504  52.357  1.00  0.00     0.124 P 
HETATM   15  O1  UNL     1      24.148   3.705  53.353  1.00  0.00    -0.203 OA
ENDBRANCH  13  14
ENDBRANCH  12  13
ENDBRANCH   9  12
ENDBRANCH   8   9
ENDBRANCH   7   8
ENDBRANCH   1   7
BRANCH   2  16
HETATM   16  C9  UNL     1      25.228  -0.871  53.190  1.00  0.00     0.076 C 
BRANCH  16  17
HETATM   17  C10 UNL     1      23.843  -0.441  53.518  1.00  0.00    -0.021 A 
HETATM   18  C11 UNL     1      23.141   0.406  52.688  1.00  0.00     0.010 A 
HETATM   19  C12 UNL     1      21.854   0.818  52.971  1.00  0.00     0.001 A 
HETATM   20  C13 UNL     1      21.248   0.367  54.126  1.00  0.00     0.003 A 
HETATM   21  C14 UNL     1      21.953  -0.480  54.955  1.00  0.00     0.037 A 
HETATM   22  C15 UNL     1      23.258  -0.913  54.693  1.00  0.00     0.072 A 
BRANCH  22  23
HETATM   23  O2  UNL     1      23.911  -1.770  55.576  1.00  0.00    -0.360 OA
HETATM   24  H18 UNL     1      23.832  -2.778  55.519  1.00  0.00     0.217 HD
ENDBRANCH  22  23
ENDBRANCH  16  17
ENDBRANCH   2  16
TORSDOF 10
ENDMDL
