ROOT
HETATM    1  C5  UNL     1      26.136   2.321  51.339  1.00  0.00     0.131 A 
HETATM    2  N3  UNL     1      26.734   3.271  50.612  1.00  0.00    -0.058 NA
HETATM    3  C6  UNL     1      25.867   4.080  50.003  1.00  0.00     0.735 A 
HETATM    4  N4  UNL     1      26.121   5.132  49.206  1.00  0.00    -0.074 NA
HETATM    5  C7  UNL     1      25.113   5.856  48.667  1.00  0.00     0.138 A 
HETATM    6  C8  UNL     1      23.839   5.443  48.988  1.00  0.00     0.038 A 
HETATM    7  C9  UNL     1      23.684   4.358  49.810  1.00  0.00     0.118 A 
HETATM    8  N5  UNL     1      24.660   3.619  50.361  1.00  0.00    -0.137 N 
HETATM    9  C10 UNL     1      24.795   2.553  51.168  1.00  0.00     0.155 A 
ENDROOT
BRANCH   1  10
HETATM   10  C4  UNL     1      26.941   1.358  52.045  1.00  0.00    -0.001 C 
HETATM   11  C3  UNL     1      27.807   1.793  52.938  1.00  0.00     0.020 C 
HETATM   12  C2  UNL     1      28.699   0.938  53.731  1.00  0.00     0.046 C 
HETATM   13  S1  UNL     1      28.323  -0.522  54.013  1.00  0.00    -0.114 SA
HETATM   14  N2  UNL     1      29.607  -1.527  53.429  1.00  0.00    -0.057 NA
HETATM   15  C18 UNL     1      27.313  -1.043  52.533  1.00  0.00     0.019 C 
HETATM   16  H2  UNL     1      27.988  -0.971  55.064  1.00  0.00     0.109 HD
HETATM   17  N1  UNL     1      28.686  -2.787  53.327  1.00  0.00    -0.182 NA
HETATM   18  C1  UNL     1      27.585  -2.416  52.867  1.00  0.00     0.153 C 
HETATM   19  C17 UNL     1      26.776  -0.048  51.922  1.00  0.00     0.033 C 
ENDBRANCH   1  10
BRANCH   9  20
HETATM   20  N6  UNL     1      23.724   1.779  51.666  1.00  0.00    -0.369 N 
HETATM   21  H8  UNL     1      23.154   1.372  50.916  1.00  0.00     0.161 HD
BRANCH  20  22
HETATM   22  C11 UNL     1      23.000   1.312  52.806  1.00  0.00     0.083 C 
HETATM   23  C12 UNL     1      23.698   0.218  53.517  1.00  0.00     0.025 C 
HETATM   24  C13 UNL     1      22.854  -0.885  54.067  1.00  0.00     0.002 C 
HETATM   25  C14 UNL     1      21.522  -0.455  54.589  1.00  0.00     0.000 C 
HETATM   26  C15 UNL     1      20.884   0.636  53.771  1.00  0.00     0.002 C 
HETATM   27  C16 UNL     1      21.604   0.826  52.447  1.00  0.00     0.025 C 
ENDBRANCH  20  22
ENDBRANCH   9  20
TORSDOF 3
ENDMDL
