ROOT
HETATM    1  C1  UNL     1      22.603   6.364  49.616  1.00  0.00     0.044 C 
HETATM    2  C2  UNL     1      23.435   5.170  50.089  1.00  0.00    -0.075 C 
HETATM    3  C3  UNL     1      24.612   5.050  49.595  1.00  0.00     0.004 C 
HETATM    4  C4  UNL     1      25.940   4.805  49.115  1.00  0.00     0.017 C 
HETATM    5  C5  UNL     1      26.675   3.718  49.511  1.00  0.00     0.090 C 
HETATM    6  N1  UNL     1      25.922   2.961  50.395  1.00  0.00    -0.349 N 
HETATM    7  C6  UNL     1      25.849   2.468  51.659  1.00  0.00     0.156 C 
HETATM    8  N2  UNL     1      26.652   1.438  51.433  1.00  0.00    -0.266 NA
HETATM    9  C7  UNL     1      26.329   0.249  52.314  1.00  0.00     0.189 C 
HETATM   10  C8  UNL     1      25.031   0.713  52.965  1.00  0.00    -0.038 C 
HETATM   11  C9  UNL     1      23.807   0.308  52.571  1.00  0.00    -0.005 C 
HETATM   12  C10 UNL     1      22.386   0.444  52.845  1.00  0.00     0.087 C 
HETATM   13  C13 UNL     1      21.512   1.104  51.800  1.00  0.00     0.136 C 
HETATM   14  C14 UNL     1      20.067   0.853  52.357  1.00  0.00     0.071 C 
HETATM   15  N4  UNL     1      21.484   2.516  51.794  1.00  0.00    -0.379 N 
HETATM   16  C15 UNL     1      22.113   3.194  52.841  1.00  0.00     0.153 C 
HETATM   17  C16 UNL     1      23.394   3.604  52.085  1.00  0.00     0.156 C 
HETATM   18  O2  UNL     1      24.443   3.843  52.881  1.00  0.00    -0.340 OA
HETATM   19  C17 UNL     1      25.238   2.637  53.004  1.00  0.00     0.115 C 
HETATM   20  C18 UNL     1      25.523   1.720  53.955  1.00  0.00     0.049 C 
HETATM   21  C19 UNL     1      22.719   4.431  51.097  1.00  0.00     0.063 C 
HETATM   22  C20 UNL     1      21.788   3.277  50.603  1.00  0.00     0.131 C 
HETATM   23  H7  UNL     1      25.114   2.694  49.720  1.00  0.00     0.167 HD
ENDROOT
BRANCH  12  24
HETATM   24  C11 UNL     1      21.898  -0.989  52.909  1.00  0.00    -0.002 C 
HETATM   25  C12 UNL     1      21.760  -1.674  54.004  1.00  0.00     0.051 C 
BRANCH  25  26
HETATM   26  N3  UNL     1      22.080  -1.054  55.235  1.00  0.00    -0.312 NA
HETATM   27  H14 UNL     1      22.121  -0.429  56.060  1.00  0.00     0.123 HD
HETATM   28  H15 UNL     1      21.530  -0.208  55.455  1.00  0.00     0.123 HD
ENDBRANCH  25  26
ENDBRANCH  12  24
BRANCH  13  29
HETATM   29  O1  UNL     1      21.538   0.434  50.612  1.00  0.00    -0.370 OA
HETATM   30  H19 UNL     1      20.763  -0.134  50.403  1.00  0.00     0.212 HD
ENDBRANCH  13  29
TORSDOF 3
ENDMDL
