ROOT
HETATM    1  C7  UNL     1      22.325   0.118  52.834  1.00  0.00     0.077 A 
HETATM    2  C8  UNL     1      21.419  -0.557  53.624  1.00  0.00     0.052 A 
HETATM    3  C9  UNL     1      21.950  -1.250  54.717  1.00  0.00     0.139 A 
HETATM    4  N1  UNL     1      23.274  -1.247  54.969  1.00  0.00    -0.075 NA
HETATM    5  C10 UNL     1      24.137  -0.580  54.181  1.00  0.00     0.723 A 
HETATM    6  N4  UNL     1      23.639   0.093  53.123  1.00  0.00    -0.063 NA
ENDROOT
BRANCH   5   7
HETATM    7  N2  UNL     1      25.538  -0.579  54.449  1.00  0.00    -0.209 N 
HETATM    8  H10 UNL     1      25.863  -0.926  55.378  1.00  0.00     0.179 HD
BRANCH   7   9
HETATM    9  C11 UNL     1      26.485  -0.113  53.476  1.00  0.00     0.172 A 
HETATM   10  C12 UNL     1      27.690  -0.981  53.352  1.00  0.00     0.011 A 
HETATM   11  C13 UNL     1      28.795  -0.255  53.559  1.00  0.00    -0.061 A 
HETATM   12  C14 UNL     1      30.165  -0.870  53.496  1.00  0.00     0.048 C 
HETATM   13  C15 UNL     1      28.409   1.134  53.834  1.00  0.00     0.033 A 
HETATM   14  C16 UNL     1      27.076   1.201  53.782  1.00  0.00     0.030 A 
BRANCH  14  15
HETATM   15  N3  UNL     1      26.484   2.469  54.021  1.00  0.00    -0.400 N 
HETATM   16  H17 UNL     1      25.429   2.417  53.998  1.00  0.00     0.156 HD
HETATM   17  H18 UNL     1      26.920   3.400  54.207  1.00  0.00     0.156 HD
ENDBRANCH  14  15
ENDBRANCH   7   9
ENDBRANCH   5   7
BRANCH   1  18
HETATM   18  C6  UNL     1      21.862   0.868  51.672  1.00  0.00     0.033 C 
HETATM   19  C5  UNL     1      21.301   0.311  50.632  1.00  0.00     0.010 C 
BRANCH  19  20
HETATM   20  C4  UNL     1      20.830   1.033  49.465  1.00  0.00     0.051 C 
BRANCH  20  21
HETATM   21  C3  UNL     1      21.745   1.640  48.722  1.00  0.00    -0.150 C 
BRANCH  21  22
HETATM   22  C2  UNL     1      22.651   2.438  48.173  1.00  0.00     0.067 C 
HETATM   23  C1  UNL     1      23.606   3.091  49.094  1.00  0.00     0.024 C 
ENDBRANCH  21  22
ENDBRANCH  20  21
ENDBRANCH  19  20
ENDBRANCH   1  18
TORSDOF 7
ENDMDL
