ROOT
HETATM    1  O1  UNL     1      19.144   2.036  49.360  1.00  0.00    -0.271 OA
HETATM    2  C1  UNL     1      19.473   1.238  50.301  1.00  0.00     0.248 C 
HETATM    3  C2  UNL     1      18.445   0.490  51.071  1.00  0.00     0.279 C 
HETATM    4  O2  UNL     1      18.926   0.218  52.376  1.00  0.00    -0.340 OA
HETATM    5  C3  UNL     1      20.265   0.086  52.641  1.00  0.00     0.098 A 
HETATM    6  C4  UNL     1      20.634  -0.500  53.831  1.00  0.00     0.071 A 
HETATM    7  C5  UNL     1      21.966  -0.656  54.146  1.00  0.00     0.075 A 
HETATM    8  N1  UNL     1      22.226  -1.245  55.341  1.00  0.00    -0.241 NA
HETATM    9  C6  UNL     1      23.518  -1.410  55.670  1.00  0.00     0.236 A 
HETATM   10  N2  UNL     1      24.496  -1.014  54.860  1.00  0.00    -0.224 NA
HETATM   11  C7  UNL     1      24.315  -0.429  53.675  1.00  0.00     0.142 A 
HETATM   12  C14 UNL     1      23.014  -0.253  53.325  1.00  0.00     0.041 A 
HETATM   13  C15 UNL     1      22.572   0.313  52.172  1.00  0.00     0.050 A 
HETATM   14  C16 UNL     1      21.260   0.502  51.793  1.00  0.00     0.071 A 
HETATM   15  N4  UNL     1      20.864   1.101  50.576  1.00  0.00    -0.312 N 
ENDROOT
BRANCH  11  16
HETATM   16  N3  UNL     1      25.330  -0.004  52.804  1.00  0.00    -0.340 N 
HETATM   17  H5  UNL     1      25.199   0.032  51.775  1.00  0.00     0.167 HD
BRANCH  16  18
HETATM   18  C8  UNL     1      26.638   0.432  53.128  1.00  0.00     0.035 A 
HETATM   19  C9  UNL     1      26.965   1.758  53.287  1.00  0.00     0.029 A 
HETATM   20  C10 UNL     1      28.230   2.210  53.595  1.00  0.00     0.004 A 
HETATM   21  C11 UNL     1      29.262   1.325  53.763  1.00  0.00     0.024 A 
HETATM   22  C12 UNL     1      28.994   0.001  53.616  1.00  0.00     0.036 A 
HETATM   23 CL1  UNL     1      30.260  -1.160  53.817  1.00  0.00    -0.084 Cl
HETATM   24  C13 UNL     1      27.719  -0.399  53.310  1.00  0.00     0.053 A 
ENDBRANCH  16  18
ENDBRANCH  11  16
BRANCH  15  25
HETATM   25  C17 UNL     1      21.876   1.557  49.646  1.00  0.00     0.162 C 
BRANCH  25  26
HETATM   26  C18 UNL     1      22.334   2.941  50.041  1.00  0.00     0.293 C 
BRANCH  26  27
HETATM   27  N5  UNL     1      23.629   3.298  49.544  1.00  0.00     0.093 N 
HETATM   28  C19 UNL     1      23.662   4.719  49.340  1.00  0.00     0.299 C 
HETATM   29  C20 UNL     1      25.031   5.233  49.054  1.00  0.00    -0.001 C 
HETATM   30  C21 UNL     1      26.121   4.544  49.380  1.00  0.00    -0.027 C 
HETATM   31  C22 UNL     1      26.035   3.229  50.045  1.00  0.00     0.057 C 
HETATM   32  C23 UNL     1      24.653   2.796  50.404  1.00  0.00     0.276 C 
ENDBRANCH  26  27
ENDBRANCH  25  26
ENDBRANCH  15  25
TORSDOF 5
ENDMDL
