ROOT
HETATM    1  C1  UNL     1      22.378   6.399  48.159  1.00  0.00     0.155 C 
HETATM    2  N1  UNL     1      22.950   6.564  49.479  1.00  0.00    -0.355 N 
HETATM    3  C2  UNL     1      23.400   7.762  50.103  1.00  0.00     0.107 C 
HETATM    4  C3  UNL     1      24.076   7.632  51.208  1.00  0.00     0.105 C 
HETATM    5  N2  UNL     1      24.298   6.306  51.679  1.00  0.00    -0.359 N 
HETATM    6  P1  UNL     1      23.241   5.301  50.665  1.00  0.00     0.051 P 
HETATM    7  C4  UNL     1      21.917   4.835  51.437  1.00  0.00     0.042 C 
HETATM    8  C5  UNL     1      21.798   3.473  52.020  1.00  0.00     0.133 C 
HETATM    9  C6  UNL     1      20.426   2.907  51.736  1.00  0.00     0.076 C 
HETATM   10  C7  UNL     1      20.417   1.476  52.159  1.00  0.00     0.091 C 
HETATM   11  N3  UNL     1      20.428   1.388  53.458  1.00  0.00    -0.277 NA
HETATM   12  C8  UNL     1      20.425   0.136  54.103  1.00  0.00     0.112 C 
HETATM   13  C9  UNL     1      21.271  -0.813  54.449  1.00  0.00    -0.002 C 
HETATM   14  C10 UNL     1      22.670  -1.268  54.448  1.00  0.00     0.088 C 
HETATM   15  C11 UNL     1      23.512  -0.245  53.773  1.00  0.00     0.058 A 
HETATM   16  C12 UNL     1      24.893  -0.186  53.857  1.00  0.00     0.048 A 
HETATM   17  C13 UNL     1      25.632   0.802  53.199  1.00  0.00     0.138 A 
HETATM   18  N4  UNL     1      24.978   1.739  52.448  1.00  0.00    -0.075 NA
HETATM   19  C14 UNL     1      23.636   1.645  52.392  1.00  0.00     0.725 A 
HETATM   20  N5  UNL     1      22.938   0.698  53.024  1.00  0.00    -0.067 NA
HETATM   21  N6  UNL     1      22.880   2.604  51.617  1.00  0.00    -0.205 N 
HETATM   22  C15 UNL     1      23.308   2.667  50.257  1.00  0.00     0.150 C 
HETATM   23  C16 UNL     1      24.148   3.900  49.969  1.00  0.00     0.096 C 
HETATM   24  H6  UNL     1      24.919   5.973  52.431  1.00  0.00     0.165 HD
ENDROOT
TORSDOF 0
ENDMDL
