ROOT
HETATM    1  C9  UNL     1      23.822   0.799  52.203  1.00  0.00    -0.012 A 
HETATM    2  C10 UNL     1      23.640  -0.014  53.330  1.00  0.00     0.027 A 
HETATM    3  C11 UNL     1      22.446  -0.615  53.666  1.00  0.00     0.035 A 
HETATM    4  C13 UNL     1      21.363  -0.402  52.838  1.00  0.00     0.056 A 
HETATM    5  C14 UNL     1      21.515   0.395  51.720  1.00  0.00     0.103 A 
HETATM    6  C17 UNL     1      22.707   0.987  51.398  1.00  0.00     0.106 A 
ENDROOT
BRANCH   1   7
HETATM    7  C8  UNL     1      25.169   1.367  51.987  1.00  0.00     0.058 A 
HETATM    8  C3  UNL     1      25.447   2.268  53.111  1.00  0.00    -0.050 A 
HETATM    9  C4  UNL     1      26.441   2.376  53.976  1.00  0.00     0.043 A 
HETATM   10  C5  UNL     1      27.496   1.394  53.773  1.00  0.00     0.062 A 
HETATM   11  C6  UNL     1      27.380   0.518  52.794  1.00  0.00     0.011 A 
HETATM   12  C7  UNL     1      26.254   0.391  51.811  1.00  0.00     0.044 A 
BRANCH   8  13
HETATM   13  C2  UNL     1      24.368   3.232  53.276  1.00  0.00    -0.019 C 
HETATM   14  C1  UNL     1      23.841   4.283  52.672  1.00  0.00     0.031 C 
ENDBRANCH   8  13
BRANCH  10  15
HETATM   15  O1  UNL     1      28.597   1.394  54.609  1.00  0.00    -0.361 OA
HETATM   16  H5  UNL     1      29.524   1.304  54.165  1.00  0.00     0.217 HD
ENDBRANCH  10  15
ENDBRANCH   1   7
BRANCH   6  17
HETATM   17  O4  UNL     1      22.948   1.800  50.298  1.00  0.00    -0.357 OA
HETATM   18  H19 UNL     1      22.302   1.676  49.515  1.00  0.00     0.217 HD
ENDBRANCH   6  17
BRANCH   3  19
HETATM   19  C12 UNL     1      22.330  -1.449  54.856  1.00  0.00     0.249 C 
HETATM   20  N1  UNL     1      23.431  -1.519  55.755  1.00  0.00    -0.366 N 
HETATM   21  H11 UNL     1      24.130  -2.225  56.024  1.00  0.00     0.159 HD
HETATM   22  H12 UNL     1      23.910  -0.888  56.448  1.00  0.00     0.159 HD
HETATM   23  O2  UNL     1      21.280  -2.089  55.077  1.00  0.00    -0.268 OA
ENDBRANCH   3  19
BRANCH   5  24
HETATM   24  O3  UNL     1      20.444   0.626  50.871  1.00  0.00    -0.349 OA
BRANCH  24  25
HETATM   25  C15 UNL     1      19.197   1.120  51.331  1.00  0.00     0.171 C 
HETATM   26  C16 UNL     1      18.174   0.032  51.047  1.00  0.00     0.034 C 
ENDBRANCH  24  25
ENDBRANCH   5  24
TORSDOF 7
ENDMDL
