ROOT
HETATM    1  C2  UNL     1      23.362   2.022  50.480  1.00  0.00     0.203 C 
HETATM    2  C3  UNL     1      23.729   3.129  49.558  1.00  0.00     0.109 C 
HETATM    3  C4  UNL     1      24.964   3.682  50.144  1.00  0.00     0.068 C 
HETATM    4  N2  UNL     1      25.125   3.215  51.335  1.00  0.00    -0.178 NA
HETATM    5  N3  UNL     1      24.104   2.354  51.682  1.00  0.00    -0.273 N 
ENDROOT
BRANCH   5   6
HETATM    6  C12 UNL     1      23.989   1.983  53.075  1.00  0.00     0.220 C 
BRANCH   6   7
HETATM    7  S1  UNL     1      25.341   0.841  53.521  1.00  0.00    -0.136 SA
HETATM    8  C13 UNL     1      26.848   1.396  53.860  1.00  0.00     0.020 C 
HETATM    9  C14 UNL     1      27.734   0.271  54.194  1.00  0.00     0.035 C 
HETATM   10  C15 UNL     1      29.097   0.819  54.536  1.00  0.00     0.017 C 
HETATM   11  C16 UNL     1      27.857  -0.704  53.046  1.00  0.00     0.038 C 
HETATM   12  C17 UNL     1      26.585  -1.351  52.687  1.00  0.00    -0.020 C 
HETATM   13  C18 UNL     1      25.356  -0.846  52.813  1.00  0.00     0.037 C 
BRANCH   8  14
HETATM   14  N4  UNL     1      27.295   2.722  53.860  1.00  0.00    -0.301 NA
HETATM   15  H17 UNL     1      27.933   3.016  54.652  1.00  0.00     0.124 HD
HETATM   16  H18 UNL     1      27.702   3.658  53.994  1.00  0.00     0.124 HD
ENDBRANCH   8  14
ENDBRANCH   6   7
ENDBRANCH   5   6
BRANCH   1  17
HETATM   17  N1  UNL     1      21.971   1.968  50.826  1.00  0.00    -0.404 N 
HETATM   18  C1  UNL     1      21.387   0.668  50.725  1.00  0.00     0.142 C 
HETATM   19  H4  UNL     1      21.702   2.504  51.659  1.00  0.00     0.154 HD
ENDBRANCH   1  17
BRANCH   3  20
HETATM   20  C5  UNL     1      25.857   4.627  49.445  1.00  0.00    -0.009 A 
HETATM   21  C6  UNL     1      25.420   5.894  49.077  1.00  0.00     0.016 A 
HETATM   22  C7  UNL     1      26.308   6.721  48.428  1.00  0.00     0.037 A 
HETATM   23  C8  UNL     1      27.599   6.337  48.134  1.00  0.00     0.068 A 
HETATM   24  C10 UNL     1      28.046   5.087  48.491  1.00  0.00     0.037 A 
HETATM   25  C11 UNL     1      27.149   4.247  49.149  1.00  0.00     0.016 A 
BRANCH  23  26
HETATM   26  O1  UNL     1      28.533   7.122  47.487  1.00  0.00    -0.356 OA
HETATM   27  C9  UNL     1      29.907   6.797  47.525  1.00  0.00     0.210 C 
ENDBRANCH  23  26
ENDBRANCH   3  20
TORSDOF 6
ENDMDL
