ROOT
HETATM    1  C3  UNL     1      23.012   3.070  51.492  1.00  0.00     0.350 C 
HETATM    2  N2  UNL     1      24.338   2.759  51.924  1.00  0.00    -0.265 NA
HETATM    3  C4  UNL     1      25.348   2.768  51.163  1.00  0.00     0.126 C 
HETATM    4  C5  UNL     1      26.782   2.476  51.432  1.00  0.00     0.108 C 
HETATM    5  N3  UNL     1      26.969   2.166  52.661  1.00  0.00    -0.161 NA
HETATM    6  C6  UNL     1      28.247   1.848  53.151  1.00  0.00     0.195 A 
HETATM    7  N4  UNL     1      27.310   1.194  53.704  1.00  0.00    -0.272 N 
HETATM    8  C7  UNL     1      27.611   0.224  54.737  1.00  0.00     0.413 C 
HETATM    9  N5  UNL     1      26.336  -0.237  55.321  1.00  0.00     0.105 N 
HETATM   10  C8  UNL     1      25.552  -0.868  54.237  1.00  0.00     0.301 C 
HETATM   11  C9  UNL     1      24.186  -1.051  54.741  1.00  0.00     0.030 C 
HETATM   12  C10 UNL     1      23.096  -0.519  54.254  1.00  0.00     0.070 C 
HETATM   13 CL1  UNL     1      21.415  -0.625  54.718  1.00  0.00    -0.081 Cl
HETATM   14  C11 UNL     1      22.569   0.337  53.217  1.00  0.00     0.140 C 
HETATM   15  F1  UNL     1      23.806   0.430  52.707  1.00  0.00    -0.204 F 
HETATM   16  C12 UNL     1      21.825   1.052  52.414  1.00  0.00    -0.031 A 
HETATM   17  C13 UNL     1      20.757   1.798  51.640  1.00  0.00     0.051 A 
HETATM   18  C14 UNL     1      22.148   1.881  51.286  1.00  0.00     0.076 A 
HETATM   19  H11 UNL     1      26.537  -0.919  56.091  1.00  0.00     0.318 HD
ENDROOT
BRANCH   1  20
HETATM   20  N1  UNL     1      22.452   4.138  52.274  1.00  0.00     0.115 N 
HETATM   21  H4  UNL     1      21.809   3.828  53.029  1.00  0.00     0.319 HD
BRANCH  20  22
HETATM   22  C2  UNL     1      21.953   5.254  51.503  1.00  0.00     0.341 C 
BRANCH  22  23
HETATM   23  C1  UNL     1      23.102   5.786  50.726  1.00  0.00     0.261 C 
HETATM   24  O1  UNL     1      23.819   6.348  51.571  1.00  0.00    -0.305 OA
ENDBRANCH  22  23
ENDBRANCH  20  22
ENDBRANCH   1  20
TORSDOF 3
ENDMDL
