ROOT
HETATM    1  C4  UNL     1      24.920   5.660  50.475  1.00  0.00     0.203 C 
HETATM    2  C5  UNL     1      23.448   6.014  50.569  1.00  0.00     0.007 C 
HETATM    3  C6  UNL     1      22.602   5.520  51.464  1.00  0.00    -0.009 C 
HETATM    4  C7  UNL     1      23.355   4.558  52.356  1.00  0.00     0.150 C 
HETATM    5  N1  UNL     1      24.149   3.671  51.615  1.00  0.00    -0.342 N 
HETATM    6  C17 UNL     1      24.997   4.174  50.604  1.00  0.00     0.350 C 
ENDROOT
BRANCH   5   7
HETATM    7  C8  UNL     1      23.792   2.306  51.535  1.00  0.00     0.195 A 
HETATM    8  C9  UNL     1      22.863   1.884  50.491  1.00  0.00     0.146 A 
HETATM    9  N2  UNL     1      22.050   1.425  51.329  1.00  0.00    -0.288 NA
HETATM   10  C10 UNL     1      22.795   1.755  52.443  1.00  0.00     0.198 A 
HETATM   11  C11 UNL     1      23.928   0.994  52.959  1.00  0.00     0.159 C 
HETATM   12  O2  UNL     1      24.728   1.386  51.919  1.00  0.00    -0.346 OA
BRANCH  11  13
HETATM   13  C12 UNL     1      23.798  -0.488  53.195  1.00  0.00     0.017 C 
HETATM   14  C13 UNL     1      22.599  -0.880  53.977  1.00  0.00     0.007 C 
HETATM   15  C14 UNL     1      23.066  -1.237  55.355  1.00  0.00     0.000 C 
HETATM   16  C15 UNL     1      24.541  -1.042  55.423  1.00  0.00     0.000 C 
HETATM   17  C16 UNL     1      25.004  -0.920  54.010  1.00  0.00     0.007 C 
ENDBRANCH  11  13
ENDBRANCH   5   7
BRANCH   6  18
HETATM   18  N3  UNL     1      26.376   3.805  50.853  1.00  0.00     0.104 N 
HETATM   19  H22 UNL     1      26.599   2.815  50.726  1.00  0.00     0.315 HD
HETATM   20  H23 UNL     1      26.745   4.117  51.772  1.00  0.00     0.315 HD
ENDBRANCH   6  18
BRANCH   1  21
HETATM   21  O1  UNL     1      25.464   6.166  49.288  1.00  0.00    -0.340 OA
BRANCH  21  22
HETATM   22  C3  UNL     1      26.067   7.408  49.279  1.00  0.00     0.069 C 
HETATM   23  C2  UNL     1      27.291   7.328  48.772  1.00  0.00    -0.048 C 
HETATM   24  C1  UNL     1      27.758   5.975  48.332  1.00  0.00     0.046 C 
HETATM   25  C20 UNL     1      28.173   8.531  48.642  1.00  0.00     0.082 C 
HETATM   26  C19 UNL     1      27.976   9.355  49.865  1.00  0.00     0.088 C 
HETATM   27  N4  UNL     1      26.792   9.430  50.306  1.00  0.00    -0.299 NA
HETATM   28  C18 UNL     1      25.671   8.777  49.695  1.00  0.00     0.212 C 
ENDBRANCH  21  22
ENDBRANCH   1  21
TORSDOF 5
ENDMDL
