ROOT
HETATM    1  C2  UNL     1      19.930  -0.371  52.788  1.00  0.00     0.103 A 
HETATM    2  C3  UNL     1      20.401  -1.009  53.917  1.00  0.00     0.072 A 
HETATM    3  C4  UNL     1      21.739  -0.969  54.240  1.00  0.00     0.075 A 
HETATM    4  N1  UNL     1      22.238  -1.563  55.311  1.00  0.00    -0.241 NA
HETATM    5  C5  UNL     1      23.542  -1.518  55.617  1.00  0.00     0.236 A 
HETATM    6  N2  UNL     1      24.390  -0.857  54.830  1.00  0.00    -0.223 NA
HETATM    7  C6  UNL     1      24.010  -0.212  53.713  1.00  0.00     0.154 A 
HETATM    8  C13 UNL     1      22.663  -0.303  53.468  1.00  0.00     0.043 A 
HETATM    9  C14 UNL     1      22.183   0.328  52.346  1.00  0.00     0.057 A 
HETATM   10  C15 UNL     1      20.847   0.293  52.018  1.00  0.00     0.102 A 
ENDROOT
BRANCH   7  11
HETATM   11  N3  UNL     1      24.973   0.466  52.926  1.00  0.00    -0.261 N 
HETATM   12 BR1  UNL     1      25.114   1.839  51.643  1.00  0.00     0.057 Br
BRANCH  11  13
HETATM   13  C7  UNL     1      26.348   0.062  53.109  1.00  0.00     0.049 A 
HETATM   14  C8  UNL     1      26.951  -1.122  52.795  1.00  0.00     0.034 A 
HETATM   15  C9  UNL     1      28.292  -1.325  53.030  1.00  0.00     0.046 A 
HETATM   16  C10 UNL     1      29.097  -0.359  53.586  1.00  0.00     0.138 A 
HETATM   17  F1  UNL     1      30.401  -0.646  53.780  1.00  0.00    -0.204 F 
HETATM   18  C11 UNL     1      28.499   0.855  53.911  1.00  0.00     0.074 A 
HETATM   19 CL1  UNL     1      29.620   2.010  54.613  1.00  0.00    -0.081 Cl
HETATM   20  C12 UNL     1      27.160   1.045  53.673  1.00  0.00     0.057 A 
ENDBRANCH  11  13
ENDBRANCH   7  11
BRANCH  10  21
HETATM   21  O2  UNL     1      20.351   0.931  50.880  1.00  0.00    -0.353 OA
HETATM   22  C16 UNL     1      21.116   0.992  49.702  1.00  0.00     0.210 C 
ENDBRANCH  10  21
BRANCH   1  23
HETATM   23  O1  UNL     1      18.591  -0.397  52.444  1.00  0.00    -0.353 OA
HETATM   24  C1  UNL     1      17.670  -1.302  53.035  1.00  0.00     0.210 C 
ENDBRANCH   1  23
TORSDOF 4
ENDMDL
