ROOT
HETATM    1  C9  UNL     1      25.586   2.965  51.727  1.00  0.00     0.066 A 
HETATM    2  C10 UNL     1      26.807   2.433  51.952  1.00  0.00     0.023 A 
HETATM    3  C11 UNL     1      26.944   1.885  53.363  1.00  0.00     0.072 A 
HETATM    4  C17 UNL     1      25.620   2.194  53.896  1.00  0.00    -0.010 A 
HETATM    5  C18 UNL     1      24.833   2.805  52.984  1.00  0.00     0.033 A 
ENDROOT
BRANCH   3   6
HETATM    6  C12 UNL     1      27.248   0.452  53.291  1.00  0.00     0.024 A 
HETATM    7  C13 UNL     1      26.551  -0.720  53.160  1.00  0.00     0.060 A 
HETATM    8  C14 UNL     1      25.094  -0.537  53.036  1.00  0.00     0.072 C 
HETATM    9  N1  UNL     1      27.116  -1.925  53.148  1.00  0.00    -0.068 NA
HETATM   10  C15 UNL     1      28.433  -2.130  53.262  1.00  0.00     0.722 A 
HETATM   11  N3  UNL     1      29.180  -1.032  53.394  1.00  0.00    -0.045 NA
HETATM   12  C16 UNL     1      28.621   0.193  53.409  1.00  0.00     0.149 A 
BRANCH  10  13
HETATM   13  N2  UNL     1      28.814  -3.490  53.223  1.00  0.00    -0.231 N 
HETATM   14  H17 UNL     1      29.806  -3.465  53.562  1.00  0.00     0.174 HD
HETATM   15  H18 UNL     1      28.209  -4.285  52.922  1.00  0.00     0.174 HD
ENDBRANCH  10  13
BRANCH  12  16
HETATM   16  N4  UNL     1      29.723   1.111  53.585  1.00  0.00    -0.383 N 
HETATM   17  H19 UNL     1      29.696   1.915  54.247  1.00  0.00     0.157 HD
HETATM   18  H20 UNL     1      30.452   0.755  52.923  1.00  0.00     0.157 HD
ENDBRANCH  12  16
ENDBRANCH   3   6
BRANCH   1  19
HETATM   19  O2  UNL     1      25.008   3.579  50.587  1.00  0.00    -0.347 OA
BRANCH  19  20
HETATM   20  C8  UNL     1      25.812   3.505  49.399  1.00  0.00     0.214 C 
BRANCH  20  21
HETATM   21  C7  UNL     1      26.452   4.795  49.111  1.00  0.00    -0.034 A 
HETATM   22  C6  UNL     1      27.728   4.725  48.594  1.00  0.00     0.012 A 
HETATM   23  C5  UNL     1      28.454   5.874  48.274  1.00  0.00     0.037 A 
HETATM   24  C4  UNL     1      27.862   7.124  48.487  1.00  0.00     0.068 A 
HETATM   25  C20 UNL     1      26.580   7.152  49.006  1.00  0.00     0.037 A 
HETATM   26  C19 UNL     1      25.858   6.022  49.325  1.00  0.00     0.012 A 
BRANCH  24  27
HETATM   27  O1  UNL     1      28.626   8.212  48.153  1.00  0.00    -0.351 OA
BRANCH  27  28
HETATM   28  C3  UNL     1      28.923   9.170  49.153  1.00  0.00     0.175 C 
BRANCH  28  29
HETATM   29  C2  UNL     1      30.417   9.144  49.419  1.00  0.00     0.022 C 
HETATM   30  C1  UNL     1      31.177   8.952  48.123  1.00  0.00     0.007 C 
ENDBRANCH  28  29
ENDBRANCH  27  28
ENDBRANCH  24  27
ENDBRANCH  20  21
ENDBRANCH  19  20
ENDBRANCH   1  19
TORSDOF 9
ENDMDL
