ROOT
HETATM    1  O1  UNL     1      26.767  -1.482  52.245  1.00  0.00    -0.290 OA
HETATM    2  C1  UNL     1      27.159  -0.483  52.964  1.00  0.00     0.188 C 
HETATM    3  C2  UNL     1      27.983   0.316  54.015  1.00  0.00     0.252 C 
HETATM    4  O2  UNL     1      26.951   1.103  54.657  1.00  0.00    -0.371 OA
HETATM    5  C3  UNL     1      26.576   2.187  53.869  1.00  0.00     0.182 C 
HETATM    6  C4  UNL     1      25.131   2.572  53.798  1.00  0.00     0.069 C 
HETATM    7  C5  UNL     1      24.387   1.899  52.626  1.00  0.00     0.014 C 
HETATM    8  C6  UNL     1      24.796   0.608  52.679  1.00  0.00     0.089 C 
HETATM    9  C15 UNL     1      26.315   0.716  52.600  1.00  0.00     0.077 C 
HETATM   10  C16 UNL     1      26.967   1.911  52.462  1.00  0.00     0.089 C 
ENDROOT
BRANCH   8  11
HETATM   11  O3  UNL     1      24.201  -0.652  52.768  1.00  0.00    -0.307 OA
BRANCH  11  12
HETATM   12  C7  UNL     1      23.100  -0.729  53.613  1.00  0.00     0.107 C 
HETATM   13  C8  UNL     1      23.430  -0.999  54.862  1.00  0.00     0.169 C 
BRANCH  13  14
HETATM   14  O4  UNL     1      24.764  -1.164  55.168  1.00  0.00    -0.370 OA
HETATM   15  H8  UNL     1      25.485  -0.594  54.726  1.00  0.00     0.216 HD
ENDBRANCH  13  14
BRANCH  12  16
HETATM   16  C9  UNL     1      21.736  -0.532  53.157  1.00  0.00    -0.000 A 
HETATM   17  C10 UNL     1      21.533   0.096  51.956  1.00  0.00     0.014 A 
HETATM   18  C11 UNL     1      20.260   0.310  51.473  1.00  0.00     0.001 A 
HETATM   19  C12 UNL     1      19.208  -0.144  52.264  1.00  0.00     0.000 A 
HETATM   20  C13 UNL     1      19.415  -0.784  53.487  1.00  0.00     0.001 A 
HETATM   21  C14 UNL     1      20.713  -0.986  53.950  1.00  0.00     0.014 A 
ENDBRANCH  12  16
ENDBRANCH  11  12
ENDBRANCH   8  11
BRANCH  10  22
HETATM   22  O5  UNL     1      27.702   2.849  51.760  1.00  0.00    -0.361 OA
HETATM   23  H14 UNL     1      27.678   3.844  51.882  1.00  0.00     0.217 HD
ENDBRANCH  10  22
TORSDOF 5
ENDMDL
