ROOT
HETATM    1  C6  UNL     1      23.601   2.898  51.229  1.00  0.00     0.163 C 
HETATM    2  C7  UNL     1      23.729   3.998  52.289  1.00  0.00     0.233 C 
HETATM    3  N1  UNL     1      24.141   5.063  51.390  1.00  0.00    -0.257 NA
HETATM    4  C8  UNL     1      24.875   4.581  50.379  1.00  0.00     0.208 C 
HETATM    5  N2  UNL     1      24.986   3.173  50.736  1.00  0.00    -0.306 N 
HETATM    6  C9  UNL     1      26.209   2.371  50.678  1.00  0.00     0.192 C 
HETATM    7  F1  UNL     1      26.749   2.662  49.495  1.00  0.00    -0.186 F 
HETATM    8  C10 UNL     1      26.679   1.536  51.677  1.00  0.00     0.063 C 
HETATM    9  C11 UNL     1      26.285   1.600  53.137  1.00  0.00     0.021 C 
HETATM   10  C12 UNL     1      25.515   2.540  53.751  1.00  0.00     0.085 C 
HETATM   11  N3  UNL     1      24.632   3.621  53.328  1.00  0.00    -0.375 N 
HETATM   12  H15 UNL     1      24.715   4.352  54.083  1.00  0.00     0.161 HD
ENDROOT
BRANCH   1  13
HETATM   13  C5  UNL     1      23.430   1.577  51.791  1.00  0.00     0.042 C 
HETATM   14  C4  UNL     1      22.217   1.089  51.995  1.00  0.00     0.102 C 
BRANCH  14  15
HETATM   15  O1  UNL     1      22.034  -0.197  52.542  1.00  0.00    -0.344 OA
BRANCH  15  16
HETATM   16  C2  UNL     1      22.087  -0.446  53.917  1.00  0.00     0.121 C 
HETATM   17  C1  UNL     1      23.447  -0.900  54.402  1.00  0.00     0.040 C 
HETATM   18  C3  UNL     1      21.113  -1.599  54.186  1.00  0.00     0.040 C 
ENDBRANCH  15  16
ENDBRANCH  14  15
BRANCH  14  19
HETATM   19  C13 UNL     1      20.992   1.820  51.679  1.00  0.00     0.123 C 
HETATM   20  C14 UNL     1      20.322   2.552  52.582  1.00  0.00     0.174 C 
HETATM   21  O2  UNL     1      19.172   3.241  52.291  1.00  0.00    -0.358 OA
HETATM   22  C15 UNL     1      18.728   3.532  50.985  1.00  0.00     0.201 C 
HETATM   23  C16 UNL     1      19.553   2.838  49.929  1.00  0.00     0.202 C 
HETATM   24  O3  UNL     1      20.388   1.847  50.442  1.00  0.00    -0.344 OA
ENDBRANCH  14  19
ENDBRANCH   1  13
TORSDOF 4
ENDMDL
