ROOT
HETATM    1  C3  UNL     1      23.588  -1.175  54.469  1.00  0.00     0.029 C 
HETATM    2  C4  UNL     1      24.493  -0.394  53.930  1.00  0.00     0.044 C 
HETATM    3  C5  UNL     1      25.886  -0.902  53.894  1.00  0.00     0.052 C 
HETATM    4  C6  UNL     1      27.056  -0.419  53.436  1.00  0.00     0.042 C 
HETATM    5 BR1  UNL     1      28.791  -1.183  53.457  1.00  0.00    -0.049 Br
HETATM    6  C7  UNL     1      26.559   0.844  52.909  1.00  0.00     0.074 C 
HETATM    7  C8  UNL     1      26.476   0.908  51.563  1.00  0.00     0.044 C 
HETATM    8  C9  UNL     1      26.173   2.285  51.186  1.00  0.00    -0.009 C 
HETATM    9  C10 UNL     1      26.496   3.280  50.375  1.00  0.00     0.093 C 
HETATM   10  N1  UNL     1      25.695   4.432  50.607  1.00  0.00    -0.387 N 
HETATM   11  C11 UNL     1      24.557   3.935  51.404  1.00  0.00     0.145 C 
HETATM   12  C17 UNL     1      25.042   2.718  52.097  1.00  0.00     0.116 C 
HETATM   13  C18 UNL     1      25.669   2.978  53.442  1.00  0.00     0.124 C 
HETATM   14  N2  UNL     1      26.167   1.854  53.821  1.00  0.00    -0.261 NA
HETATM   15  N3  UNL     1      24.044   1.713  52.281  1.00  0.00    -0.218 NA
HETATM   16  N4  UNL     1      24.177   0.903  53.400  1.00  0.00    -0.320 N 
HETATM   17  H8  UNL     1      25.918   5.389  50.262  1.00  0.00     0.159 HD
HETATM   18  H15 UNL     1      23.135   2.254  52.442  1.00  0.00     0.148 HD
HETATM   19  H16 UNL     1      23.958   1.377  54.334  1.00  0.00     0.181 HD
ENDROOT
BRANCH  11  20
HETATM   20  C12 UNL     1      23.486   3.683  50.395  1.00  0.00    -0.050 A 
HETATM   21  C13 UNL     1      23.242   3.103  49.232  1.00  0.00     0.028 A 
HETATM   22  C14 UNL     1      21.848   3.298  48.855  1.00  0.00     0.030 A 
HETATM   23 CL1  UNL     1      21.172   2.663  47.373  1.00  0.00    -0.085 Cl
HETATM   24  C15 UNL     1      21.222   3.995  49.769  1.00  0.00     0.001 A 
HETATM   25  C16 UNL     1      22.183   4.310  50.827  1.00  0.00     0.065 A 
ENDBRANCH  11  20
BRANCH   1  26
HETATM   26  C2  UNL     1      22.231  -0.660  54.496  1.00  0.00    -0.008 C 
HETATM   27  C1  UNL     1      21.247  -1.494  54.205  1.00  0.00     0.011 C 
ENDBRANCH   1  26
TORSDOF 2
ENDMDL
