ROOT
HETATM    1  N2  UNL     1      21.889   0.155  54.030  1.00  0.00    -0.337 N 
HETATM    2  C5  UNL     1      22.154  -0.949  54.799  1.00  0.00     0.210 A 
HETATM    3  N3  UNL     1      23.471  -1.136  54.697  1.00  0.00    -0.241 NA
HETATM    4  C6  UNL     1      24.015  -0.215  53.915  1.00  0.00     0.096 A 
HETATM    5  C13 UNL     1      23.023   0.606  53.489  1.00  0.00     0.076 A 
ENDROOT
BRANCH   5   6
HETATM    6  C14 UNL     1      23.231   1.654  52.542  1.00  0.00    -0.002 C 
HETATM    7  C15 UNL     1      23.521   2.962  52.739  1.00  0.00     0.009 C 
HETATM    8  C16 UNL     1      23.793   4.267  52.122  1.00  0.00     0.180 C 
HETATM    9  N4  UNL     1      22.854   4.691  51.074  1.00  0.00    -0.258 N 
HETATM   10  N5  UNL     1      22.179   5.803  50.564  1.00  0.00    -0.181 NA
HETATM   11  C18 UNL     1      22.236   3.879  50.036  1.00  0.00     0.113 A 
HETATM   12  C17 UNL     1      21.585   5.137  49.601  1.00  0.00     0.177 A 
HETATM   13  S1  UNL     1      22.490   2.235  49.854  1.00  0.00    -0.080 SA
HETATM   14  C19 UNL     1      23.215   1.338  51.079  1.00  0.00     0.065 C 
ENDBRANCH   5   6
BRANCH   1  15
HETATM   15  C4  UNL     1      20.525   0.552  53.950  1.00  0.00     0.160 C 
BRANCH  15  16
HETATM   16  C3  UNL     1      19.794  -0.206  52.884  1.00  0.00     0.291 C 
BRANCH  16  17
HETATM   17  N1  UNL     1      19.576   0.590  51.688  1.00  0.00     0.081 N 
HETATM   18  C1  UNL     1      18.347   0.123  51.082  1.00  0.00     0.309 C 
HETATM   19  C2  UNL     1      19.437   1.992  51.994  1.00  0.00     0.309 C 
ENDBRANCH  16  17
ENDBRANCH  15  16
ENDBRANCH   1  15
BRANCH   4  20
HETATM   20  C7  UNL     1      25.437  -0.423  53.720  1.00  0.00    -0.005 A 
HETATM   21  C8  UNL     1      26.270   0.210  54.676  1.00  0.00     0.017 A 
HETATM   22  C9  UNL     1      27.665   0.244  54.749  1.00  0.00     0.043 A 
HETATM   23  C10 UNL     1      28.287  -0.445  53.735  1.00  0.00     0.116 A 
HETATM   24  F1  UNL     1      29.637  -0.479  53.711  1.00  0.00    -0.206 F 
HETATM   25  C11 UNL     1      27.605  -1.103  52.742  1.00  0.00     0.043 A 
HETATM   26  C12 UNL     1      26.243  -1.050  52.798  1.00  0.00     0.017 A 
ENDBRANCH   4  20
TORSDOF 5
ENDMDL
