ROOT
HETATM    1  C1  UNL     1      22.041   4.448  52.322  1.00  0.00     0.119 C 
HETATM    2  N1  UNL     1      21.958   4.448  51.032  1.00  0.00    -0.282 NA
HETATM    3  C2  UNL     1      20.704   4.139  50.365  1.00  0.00     0.264 C 
HETATM    4  N2  UNL     1      20.455   2.763  50.517  1.00  0.00    -0.404 N 
HETATM    5  C3  UNL     1      21.214   1.782  49.866  1.00  0.00     0.119 C 
HETATM    6  C4  UNL     1      22.606   1.632  50.285  1.00  0.00     0.053 C 
HETATM    7  C5  UNL     1      23.602   2.640  50.006  1.00  0.00    -0.074 C 
HETATM    8  C6  UNL     1      24.554   2.414  50.941  1.00  0.00     0.035 C 
HETATM    9  C7  UNL     1      26.027   2.592  50.958  1.00  0.00     0.063 C 
HETATM   10  N3  UNL     1      26.800   3.371  50.235  1.00  0.00    -0.274 NA
HETATM   11  C14 UNL     1      26.471   4.406  49.230  1.00  0.00     0.253 C 
HETATM   12  N4  UNL     1      25.436   5.265  49.696  1.00  0.00    -0.228 NA
HETATM   13  C15 UNL     1      24.099   5.023  49.328  1.00  0.00     0.145 A 
HETATM   14  C16 UNL     1      23.664   3.674  48.966  1.00  0.00     0.066 C 
HETATM   15  S1  UNL     1      24.482   5.088  51.090  1.00  0.00    -0.102 SA
HETATM   16  C17 UNL     1      23.451   4.807  52.299  1.00  0.00     0.070 C 
HETATM   17  H4  UNL     1      19.597   2.475  51.013  1.00  0.00     0.154 HD
ENDROOT
BRANCH   9  18
HETATM   18  C8  UNL     1      26.768   1.792  51.916  1.00  0.00    -0.008 A 
HETATM   19  C9  UNL     1      26.471   0.446  51.868  1.00  0.00     0.014 A 
HETATM   20  C10 UNL     1      27.100  -0.452  52.734  1.00  0.00     0.001 A 
HETATM   21  C11 UNL     1      28.030  -0.032  53.660  1.00  0.00     0.000 A 
HETATM   22  C12 UNL     1      28.316   1.314  53.697  1.00  0.00     0.001 A 
HETATM   23  C13 UNL     1      27.683   2.166  52.835  1.00  0.00     0.014 A 
ENDBRANCH   9  18
TORSDOF 1
ENDMDL
