ROOT
HETATM    1  C9  UNL     1      23.603   2.675  50.873  1.00  0.00     0.241 C 
HETATM    2  N3  UNL     1      23.838   3.869  51.676  1.00  0.00    -0.273 NA
HETATM    3  C10 UNL     1      22.835   4.722  51.810  1.00  0.00     0.116 C 
HETATM    4  C11 UNL     1      21.465   5.237  51.603  1.00  0.00     0.345 C 
HETATM    5  N4  UNL     1      20.691   4.509  50.887  1.00  0.00    -0.399 NA
HETATM    6  C12 UNL     1      19.362   4.744  50.534  1.00  0.00     0.188 C 
HETATM    7  N5  UNL     1      18.872   3.704  51.173  1.00  0.00    -0.267 NA
HETATM    8  C13 UNL     1      19.739   2.819  51.907  1.00  0.00     0.272 C 
HETATM    9  N6  UNL     1      20.492   1.900  51.068  1.00  0.00    -0.371 N 
HETATM   10  C14 UNL     1      21.582   1.274  51.787  1.00  0.00     0.041 A 
HETATM   11  C15 UNL     1      21.261   0.246  52.634  1.00  0.00     0.053 A 
HETATM   12  C16 UNL     1      22.149  -0.465  53.426  1.00  0.00     0.036 A 
HETATM   13 CL1  UNL     1      21.507  -1.740  54.433  1.00  0.00    -0.084 Cl
HETATM   14  C17 UNL     1      23.453  -0.076  53.325  1.00  0.00     0.024 A 
HETATM   15  C18 UNL     1      23.810   0.962  52.474  1.00  0.00     0.015 A 
HETATM   16  C19 UNL     1      22.921   1.663  51.689  1.00  0.00     0.012 A 
HETATM   17  H16 UNL     1      20.795   1.348  50.259  1.00  0.00     0.161 HD
ENDROOT
BRANCH   1  18
HETATM   18  N2  UNL     1      24.791   2.208  50.212  1.00  0.00    -0.357 N 
HETATM   19  H9  UNL     1      24.849   1.464  49.480  1.00  0.00     0.162 HD
BRANCH  18  20
HETATM   20  C2  UNL     1      26.008   2.820  50.588  1.00  0.00     0.075 C 
HETATM   21  C1  UNL     1      26.471   3.853  49.865  1.00  0.00     0.053 C 
BRANCH  20  22
HETATM   22  C3  UNL     1      26.817   2.428  51.708  1.00  0.00    -0.047 C 
HETATM   23  C4  UNL     1      27.498   2.080  52.639  1.00  0.00    -0.064 C 
BRANCH  23  24
HETATM   24  C5  UNL     1      28.316   1.652  53.775  1.00  0.00     0.258 C 
HETATM   25  N1  UNL     1      29.605   1.305  53.302  1.00  0.00    -0.398 N 
HETATM   26  C6  UNL     1      30.097   0.019  53.542  1.00  0.00     0.142 C 
HETATM   27  H4  UNL     1      29.894   1.790  52.442  1.00  0.00     0.155 HD
HETATM   28  C7  UNL     1      29.123  -1.053  53.845  1.00  0.00     0.198 C 
HETATM   29  O1  UNL     1      28.122  -0.664  54.776  1.00  0.00    -0.318 OA
HETATM   30  C8  UNL     1      27.607   0.615  54.519  1.00  0.00     0.293 C 
HETATM   31  O2  UNL     1      26.466   1.041  54.892  1.00  0.00    -0.262 OA
ENDBRANCH  23  24
ENDBRANCH  20  22
ENDBRANCH  18  20
ENDBRANCH   1  18
TORSDOF 4
ENDMDL
