ROOT
HETATM    1  C2  UNL     1      25.538   2.679  51.133  1.00  0.00     0.183 C 
ENDROOT
BRANCH   1   2
HETATM    2  N1  UNL     1      24.227   2.259  50.815  1.00  0.00    -0.246 NA
HETATM    3  C1  UNL     1      23.394   1.717  51.631  1.00  0.00     0.152 C 
ENDBRANCH   1   2
BRANCH   1   4
HETATM    4  C3  UNL     1      26.258   3.210  50.158  1.00  0.00    -0.021 C 
BRANCH   4   5
HETATM    5  C4  UNL     1      26.838   4.076  49.384  1.00  0.00    -0.038 C 
BRANCH   5   6
HETATM    6  C5  UNL     1      27.538   5.007  48.791  1.00  0.00     0.116 A 
HETATM    7  N2  UNL     1      28.929   5.056  48.432  1.00  0.00    -0.252 NA
HETATM    8  C6  UNL     1      29.181   6.191  47.855  1.00  0.00     0.118 A 
HETATM    9  C7  UNL     1      27.950   6.991  47.787  1.00  0.00     0.029 A 
HETATM   10  C8  UNL     1      26.984   6.280  48.345  1.00  0.00    -0.023 A 
HETATM   11  C9  UNL     1      25.556   6.706  48.495  1.00  0.00     0.051 C 
ENDBRANCH   5   6
ENDBRANCH   4   5
ENDBRANCH   1   4
BRANCH   1  12
HETATM   12  N3  UNL     1      26.093   2.550  52.440  1.00  0.00    -0.334 N 
HETATM   13  H8  UNL     1      25.722   3.274  53.095  1.00  0.00     0.168 HD
BRANCH  12  14
HETATM   14  C10 UNL     1      27.040   1.556  52.809  1.00  0.00     0.035 A 
HETATM   15  C11 UNL     1      28.207   1.983  53.408  1.00  0.00     0.032 A 
HETATM   16  C12 UNL     1      29.108   0.979  53.755  1.00  0.00     0.046 A 
HETATM   17  C13 UNL     1      28.795  -0.358  53.487  1.00  0.00     0.138 A 
HETATM   18  F1  UNL     1      29.664  -1.363  53.817  1.00  0.00    -0.204 F 
HETATM   19  C14 UNL     1      27.606  -0.729  52.882  1.00  0.00     0.074 A 
HETATM   20 CL1  UNL     1      27.243  -2.404  52.561  1.00  0.00    -0.081 Cl
HETATM   21  C15 UNL     1      26.708   0.252  52.536  1.00  0.00     0.056 A 
ENDBRANCH  12  14
ENDBRANCH   1  12
TORSDOF 6
ENDMDL
