ROOT
HETATM    1  C4  UNL     1      21.899   1.641  51.633  1.00  0.00     0.042 C 
HETATM    2  C5  UNL     1      22.792   0.829  52.224  1.00  0.00     0.045 C 
HETATM    3  C6  UNL     1      22.694  -0.055  53.380  1.00  0.00     0.040 A 
HETATM    4  C7  UNL     1      21.592  -0.712  53.943  1.00  0.00     0.072 A 
HETATM    5  N3  UNL     1      21.849  -1.474  55.011  1.00  0.00    -0.241 NA
HETATM    6  C8  UNL     1      23.091  -1.594  55.502  1.00  0.00     0.235 A 
HETATM    7  N4  UNL     1      24.089  -0.943  54.919  1.00  0.00    -0.224 NA
HETATM    8  C9  UNL     1      23.974  -0.147  53.846  1.00  0.00     0.138 A 
HETATM    9  C18 UNL     1      20.150  -0.791  53.664  1.00  0.00     0.028 C 
HETATM   10  C19 UNL     1      19.440  -0.139  52.727  1.00  0.00    -0.021 C 
HETATM   11  C20 UNL     1      19.548   0.834  51.629  1.00  0.00     0.065 C 
HETATM   12  C21 UNL     1      20.469   1.982  51.883  1.00  0.00     0.171 C 
ENDROOT
BRANCH   1  13
HETATM   13  N2  UNL     1      22.543   2.280  50.528  1.00  0.00    -0.326 N 
HETATM   14  C3  UNL     1      23.711   2.957  50.976  1.00  0.00     0.247 C 
HETATM   15  O2  UNL     1      24.425   3.227  51.977  1.00  0.00    -0.271 OA
HETATM   16  H3  UNL     1      22.389   2.381  49.502  1.00  0.00     0.168 HD
BRANCH  14  17
HETATM   17  C2  UNL     1      24.651   3.737  50.134  1.00  0.00     0.203 C 
HETATM   18  N1  UNL     1      25.117   4.842  50.955  1.00  0.00    -0.321 N 
HETATM   19  C1  UNL     1      25.193   6.015  50.136  1.00  0.00     0.361 C 
HETATM   20  H1  UNL     1      25.405   5.001  51.963  1.00  0.00     0.165 HD
HETATM   21  O1  UNL     1      25.779   7.134  50.268  1.00  0.00    -0.238 OA
HETATM   22  O4  UNL     1      24.440   5.783  48.989  1.00  0.00    -0.301 OA
HETATM   23  C22 UNL     1      23.969   4.431  48.988  1.00  0.00     0.215 C 
ENDBRANCH  14  17
ENDBRANCH   1  13
BRANCH  12  24
HETATM   24  O3  UNL     1      20.141   2.990  50.954  1.00  0.00    -0.389 OA
HETATM   25  H21 UNL     1      19.850   3.824  51.400  1.00  0.00     0.210 HD
ENDBRANCH  12  24
BRANCH   8  26
HETATM   26  N5  UNL     1      25.103   0.525  53.306  1.00  0.00    -0.366 N 
HETATM   27  H6  UNL     1      25.366   1.409  52.856  1.00  0.00     0.161 HD
BRANCH  26  28
HETATM   28  C10 UNL     1      26.348  -0.211  53.399  1.00  0.00     0.109 C 
HETATM   29  C11 UNL     1      27.463   0.720  53.773  1.00  0.00    -0.002 C 
HETATM   30  C12 UNL     1      28.762   0.629  53.892  1.00  0.00    -0.002 C 
HETATM   31  C13 UNL     1      29.737  -0.440  53.711  1.00  0.00    -0.000 C 
HETATM   32  C14 UNL     1      29.710  -1.741  53.375  1.00  0.00    -0.000 C 
HETATM   33  C15 UNL     1      28.553  -2.595  53.048  1.00  0.00    -0.004 C 
HETATM   34  C16 UNL     1      27.323  -2.331  52.580  1.00  0.00    -0.024 C 
HETATM   35  C17 UNL     1      26.655  -1.056  52.208  1.00  0.00     0.056 C 
ENDBRANCH  26  28
ENDBRANCH   8  26
TORSDOF 5
ENDMDL
