ROOT
HETATM    1  C8  UNL     1      21.530   2.489  52.110  1.00  0.00     0.106 A 
HETATM    2  C9  UNL     1      21.268   3.813  52.284  1.00  0.00     0.054 A 
HETATM    3  C10 UNL     1      22.367   4.641  52.215  1.00  0.00     0.139 A 
HETATM    4  N4  UNL     1      23.629   4.232  51.996  1.00  0.00    -0.075 NA
HETATM    5  C11 UNL     1      23.848   2.922  51.831  1.00  0.00     0.723 A 
HETATM    6  N7  UNL     1      22.796   2.096  51.893  1.00  0.00    -0.061 NA
ENDROOT
BRANCH   1   7
HETATM    7  C7  UNL     1      20.537   1.421  52.140  1.00  0.00     0.090 A 
HETATM    8  C3  UNL     1      20.138   0.560  53.156  1.00  0.00     0.008 A 
HETATM    9  C4  UNL     1      19.153  -0.282  52.678  1.00  0.00     0.147 A 
HETATM   10  N2  UNL     1      18.970   0.076  51.393  1.00  0.00    -0.167 NA
HETATM   11  N3  UNL     1      19.777   1.075  51.064  1.00  0.00    -0.271 N 
HETATM   12  C6  UNL     1      19.818   1.690  49.731  1.00  0.00     0.180 C 
BRANCH   8  13
HETATM   13  C2  UNL     1      20.707   0.585  54.508  1.00  0.00     0.039 C 
HETATM   14  C1  UNL     1      21.854  -0.387  54.696  1.00  0.00     0.010 C 
ENDBRANCH   8  13
BRANCH   9  15
HETATM   15  C5  UNL     1      18.459  -1.334  53.411  1.00  0.00     0.249 C 
HETATM   16  N1  UNL     1      17.077  -1.159  53.713  1.00  0.00    -0.267 NA
HETATM   17  H6  UNL     1      16.934  -0.324  54.353  1.00  0.00     0.127 HD
HETATM   18  H7  UNL     1      16.915  -0.336  54.346  1.00  0.00     0.127 HD
HETATM   19  O1  UNL     1      19.134  -2.357  53.744  1.00  0.00    -0.272 OA
ENDBRANCH   9  15
ENDBRANCH   1   7
BRANCH   5  20
HETATM   20  N5  UNL     1      25.162   2.430  51.596  1.00  0.00    -0.218 N 
HETATM   21  H13 UNL     1      25.626   2.685  50.675  1.00  0.00     0.178 HD
BRANCH  20  22
HETATM   22  C12 UNL     1      25.845   1.613  52.563  1.00  0.00     0.102 C 
HETATM   23  C13 UNL     1      27.291   2.062  52.643  1.00  0.00     0.045 C 
HETATM   24  C14 UNL     1      28.141   1.209  53.527  1.00  0.00     0.127 C 
HETATM   25  N6  UNL     1      27.883  -0.196  53.450  1.00  0.00    -0.352 N 
HETATM   26  C15 UNL     1      28.906  -1.171  53.474  1.00  0.00     0.215 C 
HETATM   27  C17 UNL     1      26.499  -0.606  53.343  1.00  0.00     0.127 C 
HETATM   28  C16 UNL     1      30.325  -0.818  53.580  1.00  0.00     0.117 C 
HETATM   29  O2  UNL     1      28.670  -2.422  53.405  1.00  0.00    -0.274 OA
HETATM   30  C18 UNL     1      25.901   0.139  52.163  1.00  0.00     0.045 C 
ENDBRANCH  20  22
ENDBRANCH   5  20
TORSDOF 5
ENDMDL
