ROOT
HETATM    1  C9  UNL     1      24.246   1.756  52.310  1.00  0.00     0.037 A 
HETATM    2  C10 UNL     1      24.048   3.116  52.221  1.00  0.00     0.030 A 
HETATM    3  C11 UNL     1      22.831   3.755  52.152  1.00  0.00     0.011 A 
HETATM    4  C12 UNL     1      21.701   2.967  52.171  1.00  0.00    -0.035 A 
HETATM    5  C13 UNL     1      20.370   3.642  52.092  1.00  0.00     0.050 C 
HETATM    6  C14 UNL     1      21.808   1.601  52.258  1.00  0.00     0.043 A 
HETATM    7  C23 UNL     1      23.066   1.046  52.324  1.00  0.00     0.059 A 
ENDROOT
BRANCH   6   8
HETATM    8  N2  UNL     1      20.665   0.759  52.286  1.00  0.00    -0.338 N 
HETATM    9  C15 UNL     1      20.541   0.060  53.526  1.00  0.00     0.095 A 
HETATM   10  C16 UNL     1      19.521  -0.787  53.746  1.00  0.00     0.049 A 
HETATM   11  C17 UNL     1      18.549  -0.963  52.675  1.00  0.00     0.065 A 
HETATM   12  N5  UNL     1      18.660  -0.335  51.559  1.00  0.00    -0.269 NA
HETATM   13  C22 UNL     1      19.705   0.591  51.214  1.00  0.00     0.279 A 
BRANCH  11  14
HETATM   14  C18 UNL     1      17.413  -1.863  52.831  1.00  0.00     0.009 A 
HETATM   15  C19 UNL     1      17.511  -3.030  53.439  1.00  0.00     0.009 A 
HETATM   16  C20 UNL     1      16.446  -4.023  53.660  1.00  0.00     0.169 A 
HETATM   17  N3  UNL     1      15.218  -3.547  53.106  1.00  0.00    -0.311 N 
HETATM   18  N4  UNL     1      15.070  -2.323  52.456  1.00  0.00    -0.191 NA
HETATM   19  H19 UNL     1      14.466  -4.260  53.268  1.00  0.00     0.182 HD
HETATM   20  C21 UNL     1      16.099  -1.553  52.338  1.00  0.00     0.151 A 
ENDBRANCH  11  14
ENDBRANCH   6   8
BRANCH   1  21
HETATM   21  N1  UNL     1      25.487   1.088  52.382  1.00  0.00    -0.323 N 
HETATM   22  C8  UNL     1      26.030   0.257  53.375  1.00  0.00     0.259 C 
HETATM   23  O2  UNL     1      25.283   0.077  54.371  1.00  0.00    -0.267 OA
HETATM   24  H8  UNL     1      26.103   1.236  51.559  1.00  0.00     0.169 HD
BRANCH  22  25
HETATM   25  C7  UNL     1      27.316  -0.412  53.408  1.00  0.00     0.065 A 
HETATM   26  C2  UNL     1      28.518   0.047  53.897  1.00  0.00     0.084 A 
HETATM   27  C3  UNL     1      29.700  -0.649  53.892  1.00  0.00     0.038 A 
HETATM   28  C4  UNL     1      29.707  -1.911  53.361  1.00  0.00     0.003 A 
HETATM   29  C5  UNL     1      28.553  -2.454  52.849  1.00  0.00     0.001 A 
HETATM   30  C6  UNL     1      27.412  -1.701  52.886  1.00  0.00     0.020 A 
BRANCH  26  31
HETATM   31  O1  UNL     1      28.531   1.312  54.434  1.00  0.00    -0.355 OA
HETATM   32  C1  UNL     1      28.723   2.457  53.639  1.00  0.00     0.210 C 
ENDBRANCH  26  31
ENDBRANCH  22  25
ENDBRANCH   1  21
TORSDOF 5
ENDMDL
