ROOT
HETATM    1  C8  UNL     1      23.597   0.754  53.129  1.00  0.00     0.100 A 
HETATM    2  C9  UNL     1      23.572   1.996  52.650  1.00  0.00     0.048 A 
HETATM    3  C10 UNL     1      22.662   2.890  51.890  1.00  0.00     0.256 A 
HETATM    4  C16 UNL     1      21.406   2.150  51.580  1.00  0.00     0.070 A 
HETATM    5  C17 UNL     1      21.496   0.783  52.138  1.00  0.00     0.015 A 
HETATM    6  C18 UNL     1      22.344   0.031  52.817  1.00  0.00     0.097 A 
ENDROOT
BRANCH   1   7
HETATM    7  O2  UNL     1      24.578   0.085  53.837  1.00  0.00    -0.347 OA
BRANCH   7   8
HETATM    8  C7  UNL     1      25.357  -0.959  53.269  1.00  0.00     0.195 C 
BRANCH   8   9
HETATM    9  C6  UNL     1      26.349  -0.387  52.316  1.00  0.00     0.149 C 
BRANCH   9  10
HETATM   10  N1  UNL     1      27.319   0.491  52.907  1.00  0.00    -0.382 N 
HETATM   11  C2  UNL     1      27.650   1.853  52.730  1.00  0.00     0.009 C 
HETATM   12  C1  UNL     1      26.953   2.416  51.761  1.00  0.00     0.060 C 
HETATM   13  C3  UNL     1      28.662   2.517  53.558  1.00  0.00     0.219 C 
HETATM   14  O1  UNL     1      28.918   1.824  54.740  1.00  0.00    -0.384 OA
HETATM   15  C4  UNL     1      29.200   0.500  54.511  1.00  0.00     0.187 C 
HETATM   16  C5  UNL     1      28.068  -0.282  53.884  1.00  0.00     0.149 C 
ENDBRANCH   9  10
ENDBRANCH   8   9
ENDBRANCH   7   8
ENDBRANCH   1   7
BRANCH   6  17
HETATM   17  O3  UNL     1      22.072  -1.268  53.181  1.00  0.00    -0.353 OA
HETATM   18  C19 UNL     1      21.523  -1.629  54.437  1.00  0.00     0.210 C 
ENDBRANCH   6  17
BRANCH   3  19
HETATM   19  N2  UNL     1      23.326   3.480  50.754  1.00  0.00     0.134 N 
HETATM   20  C11 UNL     1      22.386   3.822  49.734  1.00  0.00     0.304 C 
HETATM   21  C12 UNL     1      23.109   4.257  48.479  1.00  0.00    -0.001 C 
HETATM   22  C13 UNL     1      23.996   5.214  48.827  1.00  0.00    -0.024 C 
HETATM   23  C14 UNL     1      24.206   5.732  50.206  1.00  0.00     0.096 C 
HETATM   24  C15 UNL     1      24.040   4.654  51.223  1.00  0.00     0.409 C 
HETATM   25  F1  UNL     1      23.340   5.235  52.292  1.00  0.00    -0.216 F 
ENDBRANCH   3  19
TORSDOF 6
ENDMDL
