ROOT
HETATM    1  C2  UNL     1      23.511   0.290  53.380  1.00  0.00     0.063 A 
HETATM    2  C3  UNL     1      23.324   1.241  52.485  1.00  0.00     0.032 A 
HETATM    3  C4  UNL     1      24.454   1.623  51.696  1.00  0.00    -0.019 A 
HETATM    4  C5  UNL     1      24.268   2.575  50.801  1.00  0.00     0.030 A 
HETATM    5  P1  UNL     1      22.384   3.048  50.995  1.00  0.00    -0.002 P 
HETATM    6  C6  UNL     1      22.055   1.902  52.271  1.00  0.00     0.059 A 
HETATM    7  C13 UNL     1      25.729   0.953  51.918  1.00  0.00     0.017 A 
HETATM    8  C14 UNL     1      25.886   0.010  52.816  1.00  0.00    -0.045 A 
HETATM    9  C19 UNL     1      24.773  -0.433  53.659  1.00  0.00     0.101 A 
ENDROOT
BRANCH   6  10
HETATM   10  N1  UNL     1      20.805   1.737  52.882  1.00  0.00    -0.354 N 
HETATM   11  H5  UNL     1      20.800   2.236  53.800  1.00  0.00     0.166 HD
BRANCH  10  12
HETATM   12  C7  UNL     1      19.727   1.018  52.354  1.00  0.00     0.034 A 
HETATM   13  C8  UNL     1      19.118   1.470  51.210  1.00  0.00     0.032 A 
HETATM   14  C9  UNL     1      18.052   0.688  50.759  1.00  0.00     0.046 A 
HETATM   15  C10 UNL     1      17.597  -0.459  51.368  1.00  0.00     0.138 A 
HETATM   16  F1  UNL     1      16.559  -1.162  50.870  1.00  0.00    -0.204 F 
HETATM   17  C11 UNL     1      18.265  -0.843  52.514  1.00  0.00     0.074 A 
HETATM   18 CL1  UNL     1      17.766  -2.295  53.373  1.00  0.00    -0.081 Cl
HETATM   19  C12 UNL     1      19.339  -0.116  53.029  1.00  0.00     0.056 A 
ENDBRANCH  10  12
ENDBRANCH   6  10
BRANCH   1  20
HETATM   20  O1  UNL     1      22.534  -0.195  54.219  1.00  0.00    -0.359 OA
HETATM   21  C1  UNL     1      22.775  -1.290  55.080  1.00  0.00     0.209 C 
ENDBRANCH   1  20
BRANCH   8  22
HETATM   22  C15 UNL     1      27.111  -0.766  53.162  1.00  0.00     0.304 C 
BRANCH  22  23
HETATM   23  N2  UNL     1      27.563  -0.573  54.504  1.00  0.00     0.091 N 
HETATM   24  H12 UNL     1      26.968   0.044  55.065  1.00  0.00     0.316 HD
BRANCH  23  25
HETATM   25  C16 UNL     1      28.953  -0.130  54.493  1.00  0.00     0.212 C 
HETATM   26  C17 UNL     1      29.758  -0.923  53.508  1.00  0.00     0.042 C 
HETATM   27  C18 UNL     1      29.049   1.332  54.099  1.00  0.00     0.042 C 
ENDBRANCH  23  25
ENDBRANCH  22  23
ENDBRANCH   8  22
TORSDOF 6
ENDMDL
