ROOT
HETATM    1  C6  UNL     1      26.783   1.246  51.775  1.00  0.00     0.070 C 
HETATM    2  C7  UNL     1      27.537   1.148  52.858  1.00  0.00    -0.043 C 
ENDROOT
BRANCH   2   3
HETATM    3  C8  UNL     1      28.154   2.296  53.529  1.00  0.00     0.301 C 
BRANCH   3   4
HETATM    4  N2  UNL     1      29.325   1.948  54.326  1.00  0.00     0.082 N 
HETATM    5  H10 UNL     1      29.900   1.226  53.853  1.00  0.00     0.313 HD
HETATM    6  H11 UNL     1      29.049   1.663  55.284  1.00  0.00     0.313 HD
ENDBRANCH   3   4
ENDBRANCH   2   3
BRANCH   2   7
HETATM    7  C9  UNL     1      27.822  -0.169  53.490  1.00  0.00     0.056 C 
BRANCH   7   8
HETATM    8  C10 UNL     1      26.629  -1.075  53.389  1.00  0.00     0.124 C 
BRANCH   8   9
HETATM    9  N3  UNL     1      25.644  -0.787  54.383  1.00  0.00    -0.390 N 
HETATM   10  H16 UNL     1      25.982  -0.607  55.376  1.00  0.00     0.159 HD
BRANCH   9  11
HETATM   11  C11 UNL     1      24.237  -0.708  54.210  1.00  0.00     0.029 A 
HETATM   12  C12 UNL     1      23.314  -1.215  55.096  1.00  0.00     0.029 A 
HETATM   13  C13 UNL     1      21.946  -1.154  54.933  1.00  0.00     0.004 A 
HETATM   14  C14 UNL     1      21.432  -0.545  53.808  1.00  0.00     0.019 A 
HETATM   15  C15 UNL     1      22.319  -0.020  52.892  1.00  0.00     0.013 A 
HETATM   16 BR1  UNL     1      21.682   0.837  51.314  1.00  0.00    -0.051 Br
HETATM   17  C16 UNL     1      23.677  -0.108  53.102  1.00  0.00     0.048 A 
ENDBRANCH   9  11
ENDBRANCH   8   9
ENDBRANCH   7   8
ENDBRANCH   2   7
BRANCH   1  18
HETATM   18  C5  UNL     1      26.500   2.505  51.151  1.00  0.00    -0.055 C 
HETATM   19  C4  UNL     1      26.273   3.590  50.630  1.00  0.00     0.017 C 
BRANCH  19  20
HETATM   20  N1  UNL     1      26.014   4.837  50.035  1.00  0.00    -0.286 N 
HETATM   21  C3  UNL     1      26.934   5.226  49.020  1.00  0.00     0.228 C 
HETATM   22  O1  UNL     1      27.923   4.509  48.667  1.00  0.00    -0.273 OA
HETATM   23  H6  UNL     1      25.204   5.437  50.315  1.00  0.00     0.179 HD
BRANCH  21  24
HETATM   24  C2  UNL     1      26.755   6.536  48.316  1.00  0.00     0.099 C 
HETATM   25  C1  UNL     1      26.666   7.631  49.366  1.00  0.00     0.014 C 
ENDBRANCH  21  24
ENDBRANCH  19  20
ENDBRANCH   1  18
TORSDOF 9
ENDMDL
