ROOT
HETATM    1  C2  UNL     1      19.654  -0.646  53.222  1.00  0.00     0.095 A 
HETATM    2  N2  UNL     1      20.189  -1.606  54.031  1.00  0.00    -0.260 NA
HETATM    3  C3  UNL     1      21.468  -1.606  54.373  1.00  0.00     0.129 A 
HETATM    4  C4  UNL     1      22.301  -0.629  53.919  1.00  0.00    -0.003 A 
HETATM    5  C13 UNL     1      21.798   0.357  53.099  1.00  0.00     0.052 A 
HETATM    6  C14 UNL     1      20.470   0.378  52.728  1.00  0.00     0.096 A 
ENDROOT
BRANCH   4   7
HETATM    7  C5  UNL     1      23.683  -0.651  54.313  1.00  0.00     0.012 A 
HETATM    8  C6  UNL     1      24.330  -1.251  55.357  1.00  0.00     0.152 A 
HETATM    9  N3  UNL     1      25.647  -0.986  55.299  1.00  0.00    -0.184 NA
HETATM   10  N4  UNL     1      25.876  -0.222  54.235  1.00  0.00    -0.276 N 
HETATM   11  C12 UNL     1      24.709  -0.012  53.633  1.00  0.00     0.126 A 
BRANCH  10  12
HETATM   12  C7  UNL     1      27.173   0.251  53.856  1.00  0.00     0.113 C 
HETATM   13  C8  UNL     1      28.254  -0.027  54.877  1.00  0.00     0.057 C 
HETATM   14  C9  UNL     1      29.574   0.121  54.108  1.00  0.00     0.271 C 
HETATM   15  N5  UNL     1      29.639   1.350  53.371  1.00  0.00     0.083 N 
HETATM   16  C10 UNL     1      28.599   2.292  53.671  1.00  0.00     0.271 C 
HETATM   17  H12 UNL     1      30.552   1.817  53.656  1.00  0.00     0.315 HD
HETATM   18  C11 UNL     1      27.209   1.740  53.596  1.00  0.00     0.057 C 
ENDBRANCH  10  12
ENDBRANCH   4   7
BRANCH   6  19
HETATM   19  O1  UNL     1      19.795   1.262  51.934  1.00  0.00    -0.344 OA
BRANCH  19  20
HETATM   20  C15 UNL     1      20.174   2.569  51.595  1.00  0.00     0.218 C 
BRANCH  20  21
HETATM   21  C16 UNL     1      20.931   2.570  50.295  1.00  0.00     0.012 A 
HETATM   22  C17 UNL     1      20.239   2.350  49.110  1.00  0.00     0.044 A 
HETATM   23 CL1  UNL     1      18.517   2.084  49.219  1.00  0.00    -0.084 Cl
HETATM   24  C18 UNL     1      20.920   2.348  47.911  1.00  0.00     0.027 A 
HETATM   25  C19 UNL     1      22.276   2.555  47.815  1.00  0.00     0.046 A 
HETATM   26  C20 UNL     1      22.954   2.773  48.996  1.00  0.00     0.138 A 
HETATM   27  F1  UNL     1      24.293   2.991  49.023  1.00  0.00    -0.204 F 
HETATM   28  C21 UNL     1      22.296   2.782  50.226  1.00  0.00     0.082 A 
HETATM   29 CL2  UNL     1      23.144   3.061  51.746  1.00  0.00    -0.080 Cl
ENDBRANCH  20  21
ENDBRANCH  19  20
ENDBRANCH   6  19
BRANCH   1  30
HETATM   30  C1  UNL     1      18.188  -0.724  52.897  1.00  0.00     0.328 C 
BRANCH  30  31
HETATM   31  N1  UNL     1      17.611  -1.652  53.872  1.00  0.00     0.084 N 
HETATM   32  H1  UNL     1      17.069  -1.078  54.567  1.00  0.00     0.313 HD
HETATM   33  H2  UNL     1      18.414  -2.048  54.434  1.00  0.00     0.313 HD
ENDBRANCH  30  31
ENDBRANCH   1  30
TORSDOF 7
ENDMDL
