ROOT
HETATM    1  C6  UNL     1      21.898   0.513  52.071  1.00  0.00     0.144 A 
HETATM    2  N2  UNL     1      20.546   0.336  52.144  1.00  0.00    -0.223 NA
HETATM    3  C7  UNL     1      20.013  -0.350  53.195  1.00  0.00     0.236 A 
HETATM    4  N3  UNL     1      20.753  -0.881  54.195  1.00  0.00    -0.241 NA
HETATM    5  C8  UNL     1      22.076  -0.702  54.114  1.00  0.00     0.075 A 
HETATM    6  C9  UNL     1      22.987  -1.189  55.053  1.00  0.00     0.073 A 
HETATM    7  C10 UNL     1      24.353  -0.996  54.942  1.00  0.00     0.116 A 
HETATM    8  C11 UNL     1      24.873  -0.292  53.859  1.00  0.00     0.007 A 
HETATM    9  C13 UNL     1      24.006   0.204  52.909  1.00  0.00     0.029 A 
HETATM   10  C14 UNL     1      22.671  -0.019  53.077  1.00  0.00     0.040 A 
ENDROOT
BRANCH   1  11
HETATM   11  N1  UNL     1      22.239   1.282  50.920  1.00  0.00    -0.333 N 
HETATM   12  C5  UNL     1      21.479   0.786  49.800  1.00  0.00     0.093 A 
HETATM   13  C4  UNL     1      21.615   1.313  48.592  1.00  0.00     0.018 A 
HETATM   14  C3  UNL     1      22.531   2.414  48.325  1.00  0.00     0.006 A 
HETATM   15  C2  UNL     1      23.196   2.822  49.394  1.00  0.00    -0.061 A 
HETATM   16  C1  UNL     1      24.166   3.935  49.280  1.00  0.00     0.045 C 
HETATM   17  C15 UNL     1      23.176   2.378  50.799  1.00  0.00     0.115 A 
HETATM   18  C16 UNL     1      22.782   3.516  51.734  1.00  0.00     0.037 C 
ENDBRANCH   1  11
BRANCH   8  19
HETATM   19  C12 UNL     1      26.345  -0.112  53.782  1.00  0.00     0.308 C 
BRANCH  19  20
HETATM   20  N4  UNL     1      26.913   0.530  54.927  1.00  0.00     0.082 N 
HETATM   21  H12 UNL     1      27.715   1.121  54.658  1.00  0.00     0.313 HD
HETATM   22  H13 UNL     1      26.175   1.162  55.335  1.00  0.00     0.313 HD
ENDBRANCH  19  20
ENDBRANCH   8  19
BRANCH   7  23
HETATM   23  O1  UNL     1      25.217  -1.490  55.886  1.00  0.00    -0.199 OA
BRANCH  23  24
HETATM   24  O2  UNL     1      25.213  -1.226  57.184  1.00  0.00    -0.245 OA
HETATM   25  H9  UNL     1      25.869  -0.573  57.479  1.00  0.00     0.254 HD
ENDBRANCH  23  24
ENDBRANCH   7  23
TORSDOF 5
ENDMDL
