ROOT
HETATM    1  S1  UNL     1      23.520   1.391  52.068  1.00  0.00    -0.212 SA
HETATM    2  C8  UNL     1      23.351  -0.170  52.986  1.00  0.00     0.232 C 
HETATM    3  N2  UNL     1      22.641  -0.827  53.688  1.00  0.00    -0.338 NA
HETATM    4  N3  UNL     1      21.936  -1.600  54.450  1.00  0.00    -0.269 N 
HETATM    5  C9  UNL     1      20.669  -0.867  54.046  1.00  0.00     0.181 C 
HETATM    6  C10 UNL     1      21.021   0.536  54.235  1.00  0.00    -0.005 C 
HETATM    7  C11 UNL     1      21.232   0.882  53.026  1.00  0.00    -0.003 C 
HETATM    8  C12 UNL     1      21.119   0.140  51.837  1.00  0.00    -0.004 C 
HETATM    9  C13 UNL     1      21.478   0.531  50.656  1.00  0.00    -0.018 C 
HETATM   10  C14 UNL     1      21.903   1.713  51.376  1.00  0.00     0.085 C 
HETATM   11  H13 UNL     1      24.571   1.029  50.801  1.00  0.00     0.088 HD
HETATM   12  H15 UNL     1      22.570  -2.303  54.932  1.00  0.00     0.195 HD
ENDROOT
BRANCH   1  13
HETATM   13  C7  UNL     1      24.180   2.755  53.021  1.00  0.00     0.060 C 
BRANCH  13  14
HETATM   14  C6  UNL     1      25.413   2.356  53.755  1.00  0.00     0.029 C 
BRANCH  14  15
HETATM   15  C5  UNL     1      26.560   2.170  52.825  1.00  0.00     0.126 C 
BRANCH  15  16
HETATM   16  N1  UNL     1      27.124   0.838  52.823  1.00  0.00    -0.348 N 
HETATM   17  C1  UNL     1      28.209   0.609  53.737  1.00  0.00     0.243 C 
HETATM   18  O1  UNL     1      28.613   1.562  54.492  1.00  0.00    -0.271 OA
HETATM   19  C2  UNL     1      29.019  -0.610  54.002  1.00  0.00     0.270 C 
HETATM   20  O2  UNL     1      28.529  -1.678  53.260  1.00  0.00    -0.380 OA
HETATM   21  C3  UNL     1      27.177  -1.546  53.061  1.00  0.00     0.188 C 
HETATM   22  C4  UNL     1      26.863  -0.383  52.107  1.00  0.00     0.152 C 
ENDBRANCH  15  16
ENDBRANCH  14  15
ENDBRANCH  13  14
ENDBRANCH   1  13
TORSDOF 4
ENDMDL
