REMARK  7 active torsions:
REMARK  status: ('A' for Active; 'I' for Inactive)
REMARK       I    between atoms: N1_2  and  C2_3 
REMARK    1  A    between atoms: C2_3  and  C3_5 
REMARK    2  A    between atoms: C10_13  and  S1_14 
REMARK    3  A    between atoms: S1_14  and  N3_17 
REMARK    4  A    between atoms: N3_17  and  C11_18 
REMARK    5  A    between atoms: C12_19  and  C13_20 
REMARK    6  A    between atoms: C14_21  and  C15_22 
REMARK    7  A    between atoms: C17_26  and  N5_27 
ROOT
HETATM    1  C1  UNL     1      -4.142   3.913  -0.594  1.00  0.00     0.149 C 
HETATM    2  N1  UNL     1      -3.375   2.796  -0.124  1.00  0.00    -0.360 N 
HETATM    3  C2  UNL     1      -3.003   1.556  -0.682  1.00  0.00     0.272 C 
HETATM    4  O1  UNL     1      -3.614   1.837  -1.772  1.00  0.00    -0.266 OA
HETATM    5  H4  UNL     1      -3.030   2.979   0.819  1.00  0.00     0.162 HD
ENDROOT
BRANCH   3   6
HETATM    6  C3  UNL     1      -2.257   0.396  -0.282  1.00  0.00     0.158 C 
HETATM    7  N2  UNL     1      -2.449  -0.152  -1.432  1.00  0.00    -0.281 NA
HETATM    8  C4  UNL     1      -1.930  -1.488  -1.810  1.00  0.00     0.162 C 
HETATM    9  C5  UNL     1      -1.051  -1.867  -0.641  1.00  0.00     0.014 A 
HETATM   10  C6  UNL     1      -1.819  -2.661   0.109  1.00  0.00     0.014 A 
HETATM   11  C10 UNL     1      -0.067  -1.023  -1.002  1.00  0.00     0.122 A 
HETATM   12  C9  UNL     1       0.112  -1.246   0.314  1.00  0.00     0.037 A 
HETATM   13  C7  UNL     1      -1.660  -2.909   1.434  1.00  0.00     0.008 A 
HETATM   14  C8  UNL     1      -0.671  -2.052   1.076  1.00  0.00    -0.007 A 
HETATM   15  C16 UNL     1      -0.274  -1.268   2.315  1.00  0.00     0.161 C 
HETATM   16  N4  UNL     1      -1.024   0.011   2.188  1.00  0.00    -0.275 NA
HETATM   17  C17 UNL     1      -1.648   0.304   1.067  1.00  0.00     0.129 C 
BRANCH  17  18
HETATM   18  N5  UNL     1      -1.977   1.354   2.006  1.00  0.00    -0.285 NA
HETATM   19  H19 UNL     1      -2.420   1.958   2.769  1.00  0.00     0.125 HD
HETATM   20  H20 UNL     1      -2.564   1.806   2.784  1.00  0.00     0.125 HD
ENDBRANCH  17  18
BRANCH  11  21
HETATM   21  S1  UNL     1       0.535  -0.216  -2.408  1.00  0.00     0.242 S 
HETATM   22  O2  UNL     1      -0.473   0.698  -3.030  1.00  0.00    -0.205 OA
HETATM   23  O3  UNL     1       0.928  -1.206  -3.483  1.00  0.00    -0.205 OA
BRANCH  21  24
HETATM   24  N3  UNL     1       1.937   0.734  -1.995  1.00  0.00    -0.294 N 
HETATM   25  H10 UNL     1       1.917   1.793  -2.129  1.00  0.00     0.177 HD
BRANCH  24  26
HETATM   26  C11 UNL     1       3.106   0.119  -1.482  1.00  0.00     0.100 C 
HETATM   27  C12 UNL     1       3.919  -0.228  -0.525  1.00  0.00     0.017 C 
BRANCH  27  28
HETATM   28  C13 UNL     1       3.768   0.047   0.880  1.00  0.00    -0.000 C 
HETATM   29  C14 UNL     1       4.529  -0.262   1.914  1.00  0.00     0.004 C 
BRANCH  29  30
HETATM   30  C15 UNL     1       5.807  -0.992   2.077  1.00  0.00     0.249 C 
HETATM   31  F1  UNL     1       6.245  -1.409   0.826  1.00  0.00    -0.251 F 
ENDBRANCH  29  30
ENDBRANCH  27  28
ENDBRANCH  24  26
ENDBRANCH  21  24
ENDBRANCH  11  21
ENDBRANCH   3   6
TORSDOF 7
