REMARK  9 active torsions:
REMARK  status: ('A' for Active; 'I' for Inactive)
REMARK    1  A    between atoms: O1_1  and  C11_18 
REMARK    2  A    between atoms: N1_2  and  C1_8 
REMARK    3  A    between atoms: N2_3  and  C2_9 
REMARK    4  A    between atoms: N2_3  and  C7_14 
REMARK    5  A    between atoms: N6_7  and  C6_13 
REMARK    6  A    between atoms: N6_7  and  C13_20 
REMARK    7  A    between atoms: C2_9  and  C5_12 
REMARK    8  A    between atoms: C2_9  and  C11_18 
REMARK    9  A    between atoms: C13_20  and  C14_21 
ROOT
HETATM    1  O1  UNL     1       5.471  -1.880   1.388  1.00  0.00    -0.399 OA
HETATM    2  H21 UNL     1       5.785  -1.215   0.751  1.00  0.00     0.209 HD
ENDROOT
BRANCH   1   3
HETATM    3  C11 UNL     1       4.049  -1.813   1.408  1.00  0.00     0.189 C 
BRANCH   3   4
HETATM    4  C2  UNL     1       3.507  -2.133   0.015  1.00  0.00     0.122 C 
BRANCH   4   5
HETATM    5  N2  UNL     1       2.059  -2.043   0.046  1.00  0.00    -0.216 N 
HETATM    6  H5  UNL     1       1.510  -2.887   0.166  1.00  0.00     0.178 HD
BRANCH   5   7
HETATM    7  C7  UNL     1       1.368  -0.847   0.009  1.00  0.00     0.726 A 
HETATM    8  N3  UNL     1       2.115   0.294  -0.059  1.00  0.00    -0.042 NA
HETATM    9  C3  UNL     1       1.343   1.390  -0.091  1.00  0.00     0.183 A 
HETATM   10  N1  UNL     1       1.748   2.693  -0.159  1.00  0.00    -0.320 N 
HETATM   11  C4  UNL     1      -0.042   1.442  -0.064  1.00  0.00     0.151 A 
HETATM   12  C8  UNL     1       0.617   3.466  -0.168  1.00  0.00     0.212 A 
HETATM   13  N4  UNL     1      -0.481   2.741  -0.112  1.00  0.00    -0.236 NA
HETATM   14  C6  UNL     1      -0.715   0.226   0.006  1.00  0.00     0.176 A 
HETATM   15  N5  UNL     1       0.002  -0.923   0.042  1.00  0.00    -0.043 NA
BRANCH  10  16
HETATM   16  C1  UNL     1       3.107   3.174  -0.210  1.00  0.00     0.084 C 
HETATM   17  C9  UNL     1       3.888   2.816   1.056  1.00  0.00     0.032 C 
HETATM   18  C10 UNL     1       3.833   2.706  -1.472  1.00  0.00     0.032 C 
ENDBRANCH  10  16
BRANCH  14  19
HETATM   19  N6  UNL     1      -2.120   0.184   0.038  1.00  0.00    -0.368 N 
HETATM   20  H15 UNL     1      -2.608   1.073   0.012  1.00  0.00     0.161 HD
BRANCH  19  21
HETATM   21  C13 UNL     1      -2.864  -1.038   0.109  1.00  0.00     0.160 C 
BRANCH  21  22
HETATM   22  C14 UNL     1      -4.341  -0.759   0.091  1.00  0.00    -0.041 A 
HETATM   23  C15 UNL     1      -5.016  -0.561   1.289  1.00  0.00     0.009 A 
HETATM   24  C17 UNL     1      -6.386  -0.302   1.273  1.00  0.00     0.001 A 
HETATM   25  C19 UNL     1      -7.070  -0.243   0.058  1.00  0.00     0.000 A 
HETATM   26  C18 UNL     1      -6.384  -0.443  -1.139  1.00  0.00     0.001 A 
HETATM   27  C16 UNL     1      -5.013  -0.702  -1.123  1.00  0.00     0.009 A 
ENDBRANCH  21  22
ENDBRANCH  19  21
ENDBRANCH  14  19
ENDBRANCH   5   7
ENDBRANCH   4   5
BRANCH   4  28
HETATM   28  C5  UNL     1       3.932  -3.538  -0.428  1.00  0.00     0.023 C 
HETATM   29  C12 UNL     1       3.394  -3.910  -1.804  1.00  0.00     0.007 C 
ENDBRANCH   4  28
ENDBRANCH   3   4
ENDBRANCH   1   3
TORSDOF 9
